# generated using pymatgen
data_H3N
_symmetry_space_group_name_H-M   'P 1'
_cell_length_a   5.13050000
_cell_length_b   5.13050000
_cell_length_c   5.13050000
_cell_angle_alpha   90.00000000
_cell_angle_beta   90.00000000
_cell_angle_gamma   90.00000000
_symmetry_Int_Tables_number   1
_chemical_formula_structural   H3N
_chemical_formula_sum   'H12 N4'
_cell_volume   135.04517620
_cell_formula_units_Z   4
loop_
 _symmetry_equiv_pos_site_id
 _symmetry_equiv_pos_as_xyz
  1  'x, y, z'
loop_
 _atom_site_type_symbol
 _atom_site_label
 _atom_site_symmetry_multiplicity
 _atom_site_fract_x
 _atom_site_fract_y
 _atom_site_fract_z
 _atom_site_occupancy
  H  H0  1  0.00630000  0.40440000  0.37970000  1.0
  H  H1  1  0.49370000  0.59560000  0.87970000  1.0
  H  H2  1  0.99370000  0.90440000  0.12030000  1.0
  H  H3  1  0.09560000  0.62030000  0.50630000  1.0
  H  H4  1  0.59560000  0.87970000  0.49370000  1.0
  H  H5  1  0.12030000  0.99370000  0.90440000  1.0
  H  H6  1  0.62030000  0.50630000  0.09560000  1.0
  H  H7  1  0.50630000  0.09560000  0.62030000  1.0
  H  H8  1  0.90440000  0.12030000  0.99370000  1.0
  H  H9  1  0.40440000  0.37970000  0.00630000  1.0
  H  H10  1  0.87970000  0.49370000  0.59560000  1.0
  H  H11  1  0.37970000  0.00630000  0.40440000  1.0
  N  N12  1  0.03980000  0.03980000  0.03980000  1.0
  N  N13  1  0.46020000  0.96020000  0.53980000  1.0
  N  N14  1  0.96020000  0.53980000  0.46020000  1.0
  N  N15  1  0.53980000  0.46020000  0.96020000  1.0
