# generated using pymatgen
data_Ag3AuS2
_symmetry_space_group_name_H-M   'P 1'
_cell_length_a   9.72000000
_cell_length_b   9.72000000
_cell_length_c   9.72000000
_cell_angle_alpha   90.00000000
_cell_angle_beta   90.00000000
_cell_angle_gamma   90.00000000
_symmetry_Int_Tables_number   1
_chemical_formula_structural   Ag3AuS2
_chemical_formula_sum   'Ag24 Au8 S16'
_cell_volume   918.33004800
_cell_formula_units_Z   8
loop_
 _symmetry_equiv_pos_site_id
 _symmetry_equiv_pos_as_xyz
  1  'x, y, z'
loop_
 _atom_site_type_symbol
 _atom_site_label
 _atom_site_symmetry_multiplicity
 _atom_site_fract_x
 _atom_site_fract_y
 _atom_site_fract_z
 _atom_site_occupancy
  Ag  Ag0  1  0.04200000  0.25500000  0.36000000  1.0
  Ag  Ag1  1  0.45800000  0.74500000  0.86000000  1.0
  Ag  Ag2  1  0.20800000  0.11000000  0.50500000  1.0
  Ag  Ag3  1  0.95800000  0.75500000  0.14000000  1.0
  Ag  Ag4  1  0.70800000  0.39000000  0.49500000  1.0
  Ag  Ag5  1  0.24500000  0.64000000  0.54200000  1.0
  Ag  Ag6  1  0.99500000  0.79200000  0.61000000  1.0
  Ag  Ag7  1  0.74500000  0.86000000  0.45800000  1.0
  Ag  Ag8  1  0.49500000  0.70800000  0.39000000  1.0
  Ag  Ag9  1  0.14000000  0.95800000  0.75500000  1.0
  Ag  Ag10  1  0.89000000  0.00500000  0.29200000  1.0
  Ag  Ag11  1  0.64000000  0.54200000  0.24500000  1.0
  Ag  Ag12  1  0.39000000  0.49500000  0.70800000  1.0
  Ag  Ag13  1  0.54200000  0.24500000  0.64000000  1.0
  Ag  Ag14  1  0.29200000  0.89000000  0.00500000  1.0
  Ag  Ag15  1  0.79200000  0.61000000  0.99500000  1.0
  Ag  Ag16  1  0.75500000  0.14000000  0.95800000  1.0
  Ag  Ag17  1  0.50500000  0.20800000  0.11000000  1.0
  Ag  Ag18  1  0.25500000  0.36000000  0.04200000  1.0
  Ag  Ag19  1  0.00500000  0.29200000  0.89000000  1.0
  Ag  Ag20  1  0.86000000  0.45800000  0.74500000  1.0
  Ag  Ag21  1  0.61000000  0.99500000  0.79200000  1.0
  Ag  Ag22  1  0.36000000  0.04200000  0.25500000  1.0
  Ag  Ag23  1  0.11000000  0.50500000  0.20800000  1.0
  Au  Au24  1  0.13000000  0.13000000  0.13000000  1.0
  Au  Au25  1  0.37000000  0.87000000  0.63000000  1.0
  Au  Au26  1  0.12000000  0.88000000  0.38000000  1.0
  Au  Au27  1  0.87000000  0.63000000  0.37000000  1.0
  Au  Au28  1  0.62000000  0.62000000  0.62000000  1.0
  Au  Au29  1  0.63000000  0.37000000  0.87000000  1.0
  Au  Au30  1  0.38000000  0.12000000  0.88000000  1.0
  Au  Au31  1  0.88000000  0.38000000  0.12000000  1.0
  S  S32  1  0.30500000  0.30500000  0.30500000  1.0
  S  S33  1  0.19500000  0.69500000  0.80500000  1.0
  S  S34  1  0.94500000  0.05500000  0.55500000  1.0
  S  S35  1  0.69500000  0.80500000  0.19500000  1.0
  S  S36  1  0.44500000  0.44500000  0.44500000  1.0
  S  S37  1  0.80500000  0.19500000  0.69500000  1.0
  S  S38  1  0.55500000  0.94500000  0.05500000  1.0
  S  S39  1  0.05500000  0.55500000  0.94500000  1.0
  S  S40  1  0.78500000  0.78500000  0.78500000  1.0
  S  S41  1  0.71500000  0.21500000  0.28500000  1.0
  S  S42  1  0.46500000  0.53500000  0.03500000  1.0
  S  S43  1  0.21500000  0.28500000  0.71500000  1.0
  S  S44  1  0.96500000  0.96500000  0.96500000  1.0
  S  S45  1  0.28500000  0.71500000  0.21500000  1.0
  S  S46  1  0.03500000  0.46500000  0.53500000  1.0
  S  S47  1  0.53500000  0.03500000  0.46500000  1.0
