# generated using pymatgen
data_Zn8Ag5
_symmetry_space_group_name_H-M   'P 1'
_cell_length_a   9.34070000
_cell_length_b   9.34070000
_cell_length_c   9.34070000
_cell_angle_alpha   90.00000000
_cell_angle_beta   90.00000000
_cell_angle_gamma   90.00000000
_symmetry_Int_Tables_number   1
_chemical_formula_structural   Zn8Ag5
_chemical_formula_sum   'Zn32 Ag20'
_cell_volume   814.96371249
_cell_formula_units_Z   4
loop_
 _symmetry_equiv_pos_site_id
 _symmetry_equiv_pos_as_xyz
  1  'x, y, z'
loop_
 _atom_site_type_symbol
 _atom_site_label
 _atom_site_symmetry_multiplicity
 _atom_site_fract_x
 _atom_site_fract_y
 _atom_site_fract_z
 _atom_site_occupancy
  Zn  Zn0  1  0.31300000  0.31300000  0.03310000  1.0
  Zn  Zn1  1  0.68700000  0.68700000  0.03310000  1.0
  Zn  Zn2  1  0.68700000  0.96690000  0.31300000  1.0
  Zn  Zn3  1  0.68700000  0.31300000  0.96690000  1.0
  Zn  Zn4  1  0.68700000  0.03310000  0.68700000  1.0
  Zn  Zn5  1  0.96690000  0.68700000  0.31300000  1.0
  Zn  Zn6  1  0.96690000  0.31300000  0.68700000  1.0
  Zn  Zn7  1  0.31300000  0.68700000  0.96690000  1.0
  Zn  Zn8  1  0.31300000  0.96690000  0.68700000  1.0
  Zn  Zn9  1  0.31300000  0.03310000  0.31300000  1.0
  Zn  Zn10  1  0.03310000  0.68700000  0.68700000  1.0
  Zn  Zn11  1  0.03310000  0.31300000  0.31300000  1.0
  Zn  Zn12  1  0.81300000  0.81300000  0.53310000  1.0
  Zn  Zn13  1  0.18700000  0.18700000  0.53310000  1.0
  Zn  Zn14  1  0.18700000  0.46690000  0.81300000  1.0
  Zn  Zn15  1  0.18700000  0.81300000  0.46690000  1.0
  Zn  Zn16  1  0.18700000  0.53310000  0.18700000  1.0
  Zn  Zn17  1  0.46690000  0.18700000  0.81300000  1.0
  Zn  Zn18  1  0.46690000  0.81300000  0.18700000  1.0
  Zn  Zn19  1  0.81300000  0.18700000  0.46690000  1.0
  Zn  Zn20  1  0.81300000  0.46690000  0.18700000  1.0
  Zn  Zn21  1  0.81300000  0.53310000  0.81300000  1.0
  Zn  Zn22  1  0.53310000  0.18700000  0.18700000  1.0
  Zn  Zn23  1  0.53310000  0.81300000  0.81300000  1.0
  Zn  Zn24  1  0.11200000  0.11200000  0.11200000  1.0
  Zn  Zn25  1  0.88800000  0.88800000  0.11200000  1.0
  Zn  Zn26  1  0.88800000  0.11200000  0.88800000  1.0
  Zn  Zn27  1  0.11200000  0.88800000  0.88800000  1.0
  Zn  Zn28  1  0.61200000  0.61200000  0.61200000  1.0
  Zn  Zn29  1  0.38800000  0.38800000  0.61200000  1.0
  Zn  Zn30  1  0.38800000  0.61200000  0.38800000  1.0
  Zn  Zn31  1  0.61200000  0.38800000  0.38800000  1.0
  Ag  Ag32  1  0.35510000  0.00000000  0.00000000  1.0
  Ag  Ag33  1  0.64490000  0.00000000  0.00000000  1.0
  Ag  Ag34  1  0.00000000  0.64490000  0.00000000  1.0
  Ag  Ag35  1  0.00000000  0.00000000  0.35510000  1.0
  Ag  Ag36  1  0.00000000  0.35510000  0.00000000  1.0
  Ag  Ag37  1  0.00000000  0.00000000  0.64490000  1.0
  Ag  Ag38  1  0.85510000  0.50000000  0.50000000  1.0
  Ag  Ag39  1  0.14490000  0.50000000  0.50000000  1.0
  Ag  Ag40  1  0.50000000  0.14490000  0.50000000  1.0
  Ag  Ag41  1  0.50000000  0.50000000  0.85510000  1.0
  Ag  Ag42  1  0.50000000  0.85510000  0.50000000  1.0
  Ag  Ag43  1  0.50000000  0.50000000  0.14490000  1.0
  Ag  Ag44  1  0.32400000  0.32400000  0.32400000  1.0
  Ag  Ag45  1  0.67600000  0.67600000  0.32400000  1.0
  Ag  Ag46  1  0.67600000  0.32400000  0.67600000  1.0
  Ag  Ag47  1  0.32400000  0.67600000  0.67600000  1.0
  Ag  Ag48  1  0.82400000  0.82400000  0.82400000  1.0
  Ag  Ag49  1  0.17600000  0.17600000  0.82400000  1.0
  Ag  Ag50  1  0.17600000  0.82400000  0.17600000  1.0
  Ag  Ag51  1  0.82400000  0.17600000  0.17600000  1.0
