# generated using pymatgen
data_In4Ag9
_symmetry_space_group_name_H-M   'P 1'
_cell_length_a   9.90350000
_cell_length_b   9.90350000
_cell_length_c   9.90350000
_cell_angle_alpha   90.00000000
_cell_angle_beta   90.00000000
_cell_angle_gamma   90.00000000
_symmetry_Int_Tables_number   1
_chemical_formula_structural   In4Ag9
_chemical_formula_sum   'In16 Ag36'
_cell_volume   971.32846887
_cell_formula_units_Z   4
loop_
 _symmetry_equiv_pos_site_id
 _symmetry_equiv_pos_as_xyz
  1  'x, y, z'
loop_
 _atom_site_type_symbol
 _atom_site_label
 _atom_site_symmetry_multiplicity
 _atom_site_fract_x
 _atom_site_fract_y
 _atom_site_fract_z
 _atom_site_occupancy
  In  In0  1  0.31130000  0.31130000  0.03320000  1.0
  In  In1  1  0.68870000  0.68870000  0.03320000  1.0
  In  In2  1  0.68870000  0.96680000  0.31130000  1.0
  In  In3  1  0.68870000  0.31130000  0.96680000  1.0
  In  In4  1  0.68870000  0.03320000  0.68870000  1.0
  In  In5  1  0.96680000  0.68870000  0.31130000  1.0
  In  In6  1  0.96680000  0.31130000  0.68870000  1.0
  In  In7  1  0.31130000  0.68870000  0.96680000  1.0
  In  In8  1  0.31130000  0.96680000  0.68870000  1.0
  In  In9  1  0.31130000  0.03320000  0.31130000  1.0
  In  In10  1  0.03320000  0.68870000  0.68870000  1.0
  In  In11  1  0.03320000  0.31130000  0.31130000  1.0
  In  In12  1  0.61570000  0.61570000  0.61570000  1.0
  In  In13  1  0.38430000  0.38430000  0.61570000  1.0
  In  In14  1  0.38430000  0.61570000  0.38430000  1.0
  In  In15  1  0.61570000  0.38430000  0.38430000  1.0
  Ag  Ag16  1  0.18470000  0.18470000  0.53220000  1.0
  Ag  Ag17  1  0.81530000  0.81530000  0.53220000  1.0
  Ag  Ag18  1  0.81530000  0.46780000  0.18470000  1.0
  Ag  Ag19  1  0.81530000  0.18470000  0.46780000  1.0
  Ag  Ag20  1  0.81530000  0.53220000  0.81530000  1.0
  Ag  Ag21  1  0.46780000  0.81530000  0.18470000  1.0
  Ag  Ag22  1  0.46780000  0.18470000  0.81530000  1.0
  Ag  Ag23  1  0.18470000  0.81530000  0.46780000  1.0
  Ag  Ag24  1  0.18470000  0.46780000  0.81530000  1.0
  Ag  Ag25  1  0.18470000  0.53220000  0.18470000  1.0
  Ag  Ag26  1  0.53220000  0.81530000  0.81530000  1.0
  Ag  Ag27  1  0.53220000  0.18470000  0.18470000  1.0
  Ag  Ag28  1  0.14470000  0.50000000  0.50000000  1.0
  Ag  Ag29  1  0.85530000  0.50000000  0.50000000  1.0
  Ag  Ag30  1  0.50000000  0.85530000  0.50000000  1.0
  Ag  Ag31  1  0.50000000  0.50000000  0.14470000  1.0
  Ag  Ag32  1  0.50000000  0.14470000  0.50000000  1.0
  Ag  Ag33  1  0.50000000  0.50000000  0.85530000  1.0
  Ag  Ag34  1  0.35490000  0.00000000  0.00000000  1.0
  Ag  Ag35  1  0.64510000  0.00000000  0.00000000  1.0
  Ag  Ag36  1  0.00000000  0.64510000  0.00000000  1.0
  Ag  Ag37  1  0.00000000  0.00000000  0.35490000  1.0
  Ag  Ag38  1  0.00000000  0.35490000  0.00000000  1.0
  Ag  Ag39  1  0.00000000  0.00000000  0.64510000  1.0
  Ag  Ag40  1  0.10660000  0.10660000  0.10660000  1.0
  Ag  Ag41  1  0.89340000  0.89340000  0.10660000  1.0
  Ag  Ag42  1  0.89340000  0.10660000  0.89340000  1.0
  Ag  Ag43  1  0.10660000  0.89340000  0.89340000  1.0
  Ag  Ag44  1  0.32960000  0.32960000  0.32960000  1.0
  Ag  Ag45  1  0.67040000  0.67040000  0.32960000  1.0
  Ag  Ag46  1  0.67040000  0.32960000  0.67040000  1.0
  Ag  Ag47  1  0.32960000  0.67040000  0.67040000  1.0
  Ag  Ag48  1  0.82530000  0.82530000  0.82530000  1.0
  Ag  Ag49  1  0.17470000  0.17470000  0.82530000  1.0
  Ag  Ag50  1  0.17470000  0.82530000  0.17470000  1.0
  Ag  Ag51  1  0.82530000  0.17470000  0.17470000  1.0
