# generated using pymatgen
data_AgClO3
_symmetry_space_group_name_H-M   'P 1'
_cell_length_a   6.80000000
_cell_length_b   6.80000000
_cell_length_c   6.80000000
_cell_angle_alpha   90.00000000
_cell_angle_beta   90.00000000
_cell_angle_gamma   90.00000000
_symmetry_Int_Tables_number   1
_chemical_formula_structural   AgClO3
_chemical_formula_sum   'Ag4 Cl4 O12'
_cell_volume   314.43200000
_cell_formula_units_Z   4
loop_
 _symmetry_equiv_pos_site_id
 _symmetry_equiv_pos_as_xyz
  1  'x, y, z'
loop_
 _atom_site_type_symbol
 _atom_site_label
 _atom_site_symmetry_multiplicity
 _atom_site_fract_x
 _atom_site_fract_y
 _atom_site_fract_z
 _atom_site_occupancy
  Ag  Ag0  1  0.06900000  0.06900000  0.06900000  1.0
  Ag  Ag1  1  0.43100000  0.93100000  0.56900000  1.0
  Ag  Ag2  1  0.93100000  0.56900000  0.43100000  1.0
  Ag  Ag3  1  0.56900000  0.43100000  0.93100000  1.0
  Cl  Cl4  1  0.41790000  0.41790000  0.41790000  1.0
  Cl  Cl5  1  0.08210000  0.58210000  0.91790000  1.0
  Cl  Cl6  1  0.58210000  0.91790000  0.08210000  1.0
  Cl  Cl7  1  0.91790000  0.08210000  0.58210000  1.0
  O  O8  1  0.00480000  0.19670000  0.40690000  1.0
  O  O9  1  0.49520000  0.80330000  0.90690000  1.0
  O  O10  1  0.99520000  0.69670000  0.09310000  1.0
  O  O11  1  0.30330000  0.59310000  0.50480000  1.0
  O  O12  1  0.80330000  0.90690000  0.49520000  1.0
  O  O13  1  0.09310000  0.99520000  0.69670000  1.0
  O  O14  1  0.59310000  0.50480000  0.30330000  1.0
  O  O15  1  0.50480000  0.30330000  0.59310000  1.0
  O  O16  1  0.69670000  0.09310000  0.99520000  1.0
  O  O17  1  0.19670000  0.40690000  0.00480000  1.0
  O  O18  1  0.90690000  0.49520000  0.80330000  1.0
  O  O19  1  0.40690000  0.00480000  0.19670000  1.0
