# generated using pymatgen
data_TmCu4Ag
_symmetry_space_group_name_H-M   'P 1'
_cell_length_a   7.08300000
_cell_length_b   7.08300000
_cell_length_c   7.08300000
_cell_angle_alpha   90.00000000
_cell_angle_beta   90.00000000
_cell_angle_gamma   90.00000000
_symmetry_Int_Tables_number   1
_chemical_formula_structural   TmCu4Ag
_chemical_formula_sum   'Tm4 Cu16 Ag4'
_cell_volume   355.34624079
_cell_formula_units_Z   4
loop_
 _symmetry_equiv_pos_site_id
 _symmetry_equiv_pos_as_xyz
  1  'x, y, z'
loop_
 _atom_site_type_symbol
 _atom_site_label
 _atom_site_symmetry_multiplicity
 _atom_site_fract_x
 _atom_site_fract_y
 _atom_site_fract_z
 _atom_site_occupancy
  Tm  Tm0  1  0.25000000  0.25000000  0.25000000  1.0
  Tm  Tm1  1  0.75000000  0.75000000  0.25000000  1.0
  Tm  Tm2  1  0.75000000  0.25000000  0.75000000  1.0
  Tm  Tm3  1  0.25000000  0.75000000  0.75000000  1.0
  Cu  Cu4  1  0.62500000  0.62500000  0.62500000  1.0
  Cu  Cu5  1  0.37500000  0.37500000  0.62500000  1.0
  Cu  Cu6  1  0.37500000  0.62500000  0.37500000  1.0
  Cu  Cu7  1  0.62500000  0.37500000  0.37500000  1.0
  Cu  Cu8  1  0.62500000  0.12500000  0.12500000  1.0
  Cu  Cu9  1  0.37500000  0.87500000  0.12500000  1.0
  Cu  Cu10  1  0.37500000  0.12500000  0.87500000  1.0
  Cu  Cu11  1  0.62500000  0.87500000  0.87500000  1.0
  Cu  Cu12  1  0.12500000  0.62500000  0.12500000  1.0
  Cu  Cu13  1  0.87500000  0.37500000  0.12500000  1.0
  Cu  Cu14  1  0.87500000  0.62500000  0.87500000  1.0
  Cu  Cu15  1  0.12500000  0.37500000  0.87500000  1.0
  Cu  Cu16  1  0.12500000  0.12500000  0.62500000  1.0
  Cu  Cu17  1  0.87500000  0.87500000  0.62500000  1.0
  Cu  Cu18  1  0.87500000  0.12500000  0.37500000  1.0
  Cu  Cu19  1  0.12500000  0.87500000  0.37500000  1.0
  Ag  Ag20  1  0.00000000  0.00000000  0.00000000  1.0
  Ag  Ag21  1  0.00000000  0.50000000  0.50000000  1.0
  Ag  Ag22  1  0.50000000  0.00000000  0.50000000  1.0
  Ag  Ag23  1  0.50000000  0.50000000  0.00000000  1.0
