# generated using pymatgen
data_Am4Sb3
_symmetry_space_group_name_H-M   'P 1'
_cell_length_a   9.23920000
_cell_length_b   9.23920000
_cell_length_c   9.23920000
_cell_angle_alpha   90.00000000
_cell_angle_beta   90.00000000
_cell_angle_gamma   90.00000000
_symmetry_Int_Tables_number   1
_chemical_formula_structural   Am4Sb3
_chemical_formula_sum   'Am16 Sb12'
_cell_volume   788.68413550
_cell_formula_units_Z   4
loop_
 _symmetry_equiv_pos_site_id
 _symmetry_equiv_pos_as_xyz
  1  'x, y, z'
loop_
 _atom_site_type_symbol
 _atom_site_label
 _atom_site_symmetry_multiplicity
 _atom_site_fract_x
 _atom_site_fract_y
 _atom_site_fract_z
 _atom_site_occupancy
  Am  Am0  1  0.08333000  0.08333000  0.08333000  1.0
  Am  Am1  1  0.41667000  0.08333000  0.91667000  1.0
  Am  Am2  1  0.16667000  0.33333000  0.66667000  1.0
  Am  Am3  1  0.91667000  0.41667000  0.08333000  1.0
  Am  Am4  1  0.66667000  0.16667000  0.33333000  1.0
  Am  Am5  1  0.33333000  0.66667000  0.16667000  1.0
  Am  Am6  1  0.33333000  0.33333000  0.33333000  1.0
  Am  Am7  1  0.08333000  0.91667000  0.41667000  1.0
  Am  Am8  1  0.58333000  0.58333000  0.58333000  1.0
  Am  Am9  1  0.91667000  0.58333000  0.41667000  1.0
  Am  Am10  1  0.66667000  0.83333000  0.16667000  1.0
  Am  Am11  1  0.41667000  0.91667000  0.58333000  1.0
  Am  Am12  1  0.16667000  0.66667000  0.83333000  1.0
  Am  Am13  1  0.83333000  0.16667000  0.66667000  1.0
  Am  Am14  1  0.83333000  0.83333000  0.83333000  1.0
  Am  Am15  1  0.58333000  0.41667000  0.91667000  1.0
  Sb  Sb16  1  0.37500000  0.00000000  0.25000000  1.0
  Sb  Sb17  1  0.12500000  0.00000000  0.75000000  1.0
  Sb  Sb18  1  0.87500000  0.50000000  0.75000000  1.0
  Sb  Sb19  1  0.62500000  0.50000000  0.25000000  1.0
  Sb  Sb20  1  0.50000000  0.25000000  0.62500000  1.0
  Sb  Sb21  1  0.25000000  0.62500000  0.50000000  1.0
  Sb  Sb22  1  0.00000000  0.25000000  0.37500000  1.0
  Sb  Sb23  1  0.75000000  0.87500000  0.50000000  1.0
  Sb  Sb24  1  0.25000000  0.37500000  0.00000000  1.0
  Sb  Sb25  1  0.75000000  0.12500000  0.00000000  1.0
  Sb  Sb26  1  0.00000000  0.75000000  0.12500000  1.0
  Sb  Sb27  1  0.50000000  0.75000000  0.87500000  1.0
