# generated using pymatgen
data_AmAlO3
_symmetry_space_group_name_H-M   'P 1'
_cell_length_a   5.33600000
_cell_length_b   5.33600000
_cell_length_c   12.91000000
_cell_angle_alpha   90.00000000
_cell_angle_beta   90.00000000
_cell_angle_gamma   120.00000000
_symmetry_Int_Tables_number   1
_chemical_formula_structural   AmAlO3
_chemical_formula_sum   'Am6 Al6 O18'
_cell_volume   318.33802371
_cell_formula_units_Z   6
loop_
 _symmetry_equiv_pos_site_id
 _symmetry_equiv_pos_as_xyz
  1  'x, y, z'
loop_
 _atom_site_type_symbol
 _atom_site_label
 _atom_site_symmetry_multiplicity
 _atom_site_fract_x
 _atom_site_fract_y
 _atom_site_fract_z
 _atom_site_occupancy
  Am  Am0  1  0.00000000  0.00000000  0.25000000  1.0
  Am  Am1  1  0.00000000  0.00000000  0.75000000  1.0
  Am  Am2  1  0.66666667  0.33333333  0.58333333  1.0
  Am  Am3  1  0.66666667  0.33333333  0.08333333  1.0
  Am  Am4  1  0.33333333  0.66666667  0.91666667  1.0
  Am  Am5  1  0.33333333  0.66666667  0.41666667  1.0
  Al  Al6  1  0.00000000  0.00000000  0.50000000  1.0
  Al  Al7  1  0.66666667  0.33333333  0.83333333  1.0
  Al  Al8  1  0.33333333  0.66666667  0.16666667  1.0
  Al  Al9  1  0.00000000  0.00000000  0.00000000  1.0
  Al  Al10  1  0.66666667  0.33333333  0.33333333  1.0
  Al  Al11  1  0.33333333  0.66666667  0.66666667  1.0
  O  O12  1  0.50000000  0.50000000  0.25000000  1.0
  O  O13  1  0.00000000  0.50000000  0.25000000  1.0
  O  O14  1  0.50000000  0.00000000  0.75000000  1.0
  O  O15  1  0.50000000  0.50000000  0.75000000  1.0
  O  O16  1  0.50000000  0.00000000  0.25000000  1.0
  O  O17  1  0.00000000  0.50000000  0.75000000  1.0
  O  O18  1  0.16666667  0.83333333  0.58333333  1.0
  O  O19  1  0.66666667  0.83333333  0.58333333  1.0
  O  O20  1  0.16666667  0.33333333  0.08333333  1.0
  O  O21  1  0.16666667  0.83333333  0.08333333  1.0
  O  O22  1  0.16666667  0.33333333  0.58333333  1.0
  O  O23  1  0.66666667  0.83333333  0.08333333  1.0
  O  O24  1  0.83333333  0.16666667  0.91666667  1.0
  O  O25  1  0.33333333  0.16666667  0.91666667  1.0
  O  O26  1  0.83333333  0.66666667  0.41666667  1.0
  O  O27  1  0.83333333  0.16666667  0.41666667  1.0
  O  O28  1  0.83333333  0.66666667  0.91666667  1.0
  O  O29  1  0.33333333  0.16666667  0.41666667  1.0
