# generated using pymatgen
data_U3Sn4Au3
_symmetry_space_group_name_H-M   'P 1'
_cell_length_a   9.82400000
_cell_length_b   9.82400000
_cell_length_c   9.82400000
_cell_angle_alpha   90.00000000
_cell_angle_beta   90.00000000
_cell_angle_gamma   90.00000000
_symmetry_Int_Tables_number   1
_chemical_formula_structural   U3Sn4Au3
_chemical_formula_sum   'U12 Sn16 Au12'
_cell_volume   948.12382822
_cell_formula_units_Z   4
loop_
 _symmetry_equiv_pos_site_id
 _symmetry_equiv_pos_as_xyz
  1  'x, y, z'
loop_
 _atom_site_type_symbol
 _atom_site_label
 _atom_site_symmetry_multiplicity
 _atom_site_fract_x
 _atom_site_fract_y
 _atom_site_fract_z
 _atom_site_occupancy
  U  U0  1  0.37500000  0.00000000  0.25000000  1.0
  U  U1  1  0.12500000  0.00000000  0.75000000  1.0
  U  U2  1  0.87500000  0.50000000  0.75000000  1.0
  U  U3  1  0.62500000  0.50000000  0.25000000  1.0
  U  U4  1  0.50000000  0.25000000  0.62500000  1.0
  U  U5  1  0.25000000  0.62500000  0.50000000  1.0
  U  U6  1  0.00000000  0.25000000  0.37500000  1.0
  U  U7  1  0.75000000  0.87500000  0.50000000  1.0
  U  U8  1  0.25000000  0.37500000  0.00000000  1.0
  U  U9  1  0.75000000  0.12500000  0.00000000  1.0
  U  U10  1  0.00000000  0.75000000  0.12500000  1.0
  U  U11  1  0.50000000  0.75000000  0.87500000  1.0
  Sn  Sn12  1  0.08800000  0.08800000  0.08800000  1.0
  Sn  Sn13  1  0.41200000  0.08800000  0.91200000  1.0
  Sn  Sn14  1  0.16200000  0.33800000  0.66200000  1.0
  Sn  Sn15  1  0.91200000  0.41200000  0.08800000  1.0
  Sn  Sn16  1  0.66200000  0.16200000  0.33800000  1.0
  Sn  Sn17  1  0.33800000  0.66200000  0.16200000  1.0
  Sn  Sn18  1  0.33800000  0.33800000  0.33800000  1.0
  Sn  Sn19  1  0.08800000  0.91200000  0.41200000  1.0
  Sn  Sn20  1  0.58800000  0.58800000  0.58800000  1.0
  Sn  Sn21  1  0.91200000  0.58800000  0.41200000  1.0
  Sn  Sn22  1  0.66200000  0.83800000  0.16200000  1.0
  Sn  Sn23  1  0.41200000  0.91200000  0.58800000  1.0
  Sn  Sn24  1  0.16200000  0.66200000  0.83800000  1.0
  Sn  Sn25  1  0.83800000  0.16200000  0.66200000  1.0
  Sn  Sn26  1  0.83800000  0.83800000  0.83800000  1.0
  Sn  Sn27  1  0.58800000  0.41200000  0.91200000  1.0
  Au  Au28  1  0.87500000  0.00000000  0.25000000  1.0
  Au  Au29  1  0.62500000  0.00000000  0.75000000  1.0
  Au  Au30  1  0.37500000  0.50000000  0.75000000  1.0
  Au  Au31  1  0.12500000  0.50000000  0.25000000  1.0
  Au  Au32  1  0.50000000  0.25000000  0.12500000  1.0
  Au  Au33  1  0.25000000  0.12500000  0.50000000  1.0
  Au  Au34  1  0.00000000  0.25000000  0.87500000  1.0
  Au  Au35  1  0.75000000  0.37500000  0.50000000  1.0
  Au  Au36  1  0.25000000  0.87500000  0.00000000  1.0
  Au  Au37  1  0.75000000  0.62500000  0.00000000  1.0
  Au  Au38  1  0.00000000  0.75000000  0.62500000  1.0
  Au  Au39  1  0.50000000  0.75000000  0.37500000  1.0
