# generated using pymatgen
data_Cd8Au5
_symmetry_space_group_name_H-M   'P 1'
_cell_length_a   9.99800000
_cell_length_b   9.99800000
_cell_length_c   9.99800000
_cell_angle_alpha   90.00000000
_cell_angle_beta   90.00000000
_cell_angle_gamma   90.00000000
_symmetry_Int_Tables_number   1
_chemical_formula_structural   Cd8Au5
_chemical_formula_sum   'Cd32 Au20'
_cell_volume   999.40011999
_cell_formula_units_Z   4
loop_
 _symmetry_equiv_pos_site_id
 _symmetry_equiv_pos_as_xyz
  1  'x, y, z'
loop_
 _atom_site_type_symbol
 _atom_site_label
 _atom_site_symmetry_multiplicity
 _atom_site_fract_x
 _atom_site_fract_y
 _atom_site_fract_z
 _atom_site_occupancy
  Cd  Cd0  1  0.31280000  0.31280000  0.03660000  1.0
  Cd  Cd1  1  0.68720000  0.68720000  0.03660000  1.0
  Cd  Cd2  1  0.68720000  0.96340000  0.31280000  1.0
  Cd  Cd3  1  0.68720000  0.31280000  0.96340000  1.0
  Cd  Cd4  1  0.68720000  0.03660000  0.68720000  1.0
  Cd  Cd5  1  0.96340000  0.68720000  0.31280000  1.0
  Cd  Cd6  1  0.96340000  0.31280000  0.68720000  1.0
  Cd  Cd7  1  0.31280000  0.68720000  0.96340000  1.0
  Cd  Cd8  1  0.31280000  0.96340000  0.68720000  1.0
  Cd  Cd9  1  0.31280000  0.03660000  0.31280000  1.0
  Cd  Cd10  1  0.03660000  0.68720000  0.68720000  1.0
  Cd  Cd11  1  0.03660000  0.31280000  0.31280000  1.0
  Cd  Cd12  1  0.81280000  0.81280000  0.53660000  1.0
  Cd  Cd13  1  0.18720000  0.18720000  0.53660000  1.0
  Cd  Cd14  1  0.18720000  0.46340000  0.81280000  1.0
  Cd  Cd15  1  0.18720000  0.81280000  0.46340000  1.0
  Cd  Cd16  1  0.18720000  0.53660000  0.18720000  1.0
  Cd  Cd17  1  0.46340000  0.18720000  0.81280000  1.0
  Cd  Cd18  1  0.46340000  0.81280000  0.18720000  1.0
  Cd  Cd19  1  0.81280000  0.18720000  0.46340000  1.0
  Cd  Cd20  1  0.81280000  0.46340000  0.18720000  1.0
  Cd  Cd21  1  0.81280000  0.53660000  0.81280000  1.0
  Cd  Cd22  1  0.53660000  0.18720000  0.18720000  1.0
  Cd  Cd23  1  0.53660000  0.81280000  0.81280000  1.0
  Cd  Cd24  1  0.10890000  0.10890000  0.10890000  1.0
  Cd  Cd25  1  0.89110000  0.89110000  0.10890000  1.0
  Cd  Cd26  1  0.89110000  0.10890000  0.89110000  1.0
  Cd  Cd27  1  0.10890000  0.89110000  0.89110000  1.0
  Cd  Cd28  1  0.60890000  0.60890000  0.60890000  1.0
  Cd  Cd29  1  0.39110000  0.39110000  0.60890000  1.0
  Cd  Cd30  1  0.39110000  0.60890000  0.39110000  1.0
  Cd  Cd31  1  0.60890000  0.39110000  0.39110000  1.0
  Au  Au32  1  0.35580000  0.00000000  0.00000000  1.0
  Au  Au33  1  0.64420000  0.00000000  0.00000000  1.0
  Au  Au34  1  0.00000000  0.64420000  0.00000000  1.0
  Au  Au35  1  0.00000000  0.00000000  0.35580000  1.0
  Au  Au36  1  0.00000000  0.35580000  0.00000000  1.0
  Au  Au37  1  0.00000000  0.00000000  0.64420000  1.0
  Au  Au38  1  0.85580000  0.50000000  0.50000000  1.0
  Au  Au39  1  0.14420000  0.50000000  0.50000000  1.0
  Au  Au40  1  0.50000000  0.14420000  0.50000000  1.0
  Au  Au41  1  0.50000000  0.50000000  0.85580000  1.0
  Au  Au42  1  0.50000000  0.85580000  0.50000000  1.0
  Au  Au43  1  0.50000000  0.50000000  0.14420000  1.0
  Au  Au44  1  0.32800000  0.32800000  0.32800000  1.0
  Au  Au45  1  0.67200000  0.67200000  0.32800000  1.0
  Au  Au46  1  0.67200000  0.32800000  0.67200000  1.0
  Au  Au47  1  0.32800000  0.67200000  0.67200000  1.0
  Au  Au48  1  0.82800000  0.82800000  0.82800000  1.0
  Au  Au49  1  0.17200000  0.17200000  0.82800000  1.0
  Au  Au50  1  0.17200000  0.82800000  0.17200000  1.0
  Au  Au51  1  0.82800000  0.17200000  0.17200000  1.0
