# generated using pymatgen
data_In4Au9
_symmetry_space_group_name_H-M   'P 1'
_cell_length_a   9.84300000
_cell_length_b   9.84300000
_cell_length_c   9.84300000
_cell_angle_alpha   90.00000000
_cell_angle_beta   90.00000000
_cell_angle_gamma   90.00000000
_symmetry_Int_Tables_number   1
_chemical_formula_structural   In4Au9
_chemical_formula_sum   'In16 Au36'
_cell_volume   953.63560011
_cell_formula_units_Z   4
loop_
 _symmetry_equiv_pos_site_id
 _symmetry_equiv_pos_as_xyz
  1  'x, y, z'
loop_
 _atom_site_type_symbol
 _atom_site_label
 _atom_site_symmetry_multiplicity
 _atom_site_fract_x
 _atom_site_fract_y
 _atom_site_fract_z
 _atom_site_occupancy
  In  In0  1  0.30700000  0.30700000  0.04600000  1.0
  In  In1  1  0.69300000  0.69300000  0.04600000  1.0
  In  In2  1  0.69300000  0.95400000  0.30700000  1.0
  In  In3  1  0.69300000  0.30700000  0.95400000  1.0
  In  In4  1  0.69300000  0.04600000  0.69300000  1.0
  In  In5  1  0.95400000  0.69300000  0.30700000  1.0
  In  In6  1  0.95400000  0.30700000  0.69300000  1.0
  In  In7  1  0.30700000  0.69300000  0.95400000  1.0
  In  In8  1  0.30700000  0.95400000  0.69300000  1.0
  In  In9  1  0.30700000  0.04600000  0.30700000  1.0
  In  In10  1  0.04600000  0.69300000  0.69300000  1.0
  In  In11  1  0.04600000  0.30700000  0.30700000  1.0
  In  In12  1  0.61300000  0.61300000  0.61300000  1.0
  In  In13  1  0.38700000  0.38700000  0.61300000  1.0
  In  In14  1  0.38700000  0.61300000  0.38700000  1.0
  In  In15  1  0.61300000  0.38700000  0.38700000  1.0
  Au  Au16  1  0.18600000  0.18600000  0.53800000  1.0
  Au  Au17  1  0.81400000  0.81400000  0.53800000  1.0
  Au  Au18  1  0.81400000  0.46200000  0.18600000  1.0
  Au  Au19  1  0.81400000  0.18600000  0.46200000  1.0
  Au  Au20  1  0.81400000  0.53800000  0.81400000  1.0
  Au  Au21  1  0.46200000  0.81400000  0.18600000  1.0
  Au  Au22  1  0.46200000  0.18600000  0.81400000  1.0
  Au  Au23  1  0.18600000  0.81400000  0.46200000  1.0
  Au  Au24  1  0.18600000  0.46200000  0.81400000  1.0
  Au  Au25  1  0.18600000  0.53800000  0.18600000  1.0
  Au  Au26  1  0.53800000  0.81400000  0.81400000  1.0
  Au  Au27  1  0.53800000  0.18600000  0.18600000  1.0
  Au  Au28  1  0.13400000  0.50000000  0.50000000  1.0
  Au  Au29  1  0.86600000  0.50000000  0.50000000  1.0
  Au  Au30  1  0.50000000  0.86600000  0.50000000  1.0
  Au  Au31  1  0.50000000  0.50000000  0.13400000  1.0
  Au  Au32  1  0.50000000  0.13400000  0.50000000  1.0
  Au  Au33  1  0.50000000  0.50000000  0.86600000  1.0
  Au  Au34  1  0.36100000  0.00000000  0.00000000  1.0
  Au  Au35  1  0.63900000  0.00000000  0.00000000  1.0
  Au  Au36  1  0.00000000  0.63900000  0.00000000  1.0
  Au  Au37  1  0.00000000  0.00000000  0.36100000  1.0
  Au  Au38  1  0.00000000  0.36100000  0.00000000  1.0
  Au  Au39  1  0.00000000  0.00000000  0.63900000  1.0
  Au  Au40  1  0.10100000  0.10100000  0.10100000  1.0
  Au  Au41  1  0.89900000  0.89900000  0.10100000  1.0
  Au  Au42  1  0.89900000  0.10100000  0.89900000  1.0
  Au  Au43  1  0.10100000  0.89900000  0.89900000  1.0
  Au  Au44  1  0.33500000  0.33500000  0.33500000  1.0
  Au  Au45  1  0.66500000  0.66500000  0.33500000  1.0
  Au  Au46  1  0.66500000  0.33500000  0.66500000  1.0
  Au  Au47  1  0.33500000  0.66500000  0.66500000  1.0
  Au  Au48  1  0.82400000  0.82400000  0.82400000  1.0
  Au  Au49  1  0.17600000  0.17600000  0.82400000  1.0
  Au  Au50  1  0.17600000  0.82400000  0.17600000  1.0
  Au  Au51  1  0.82400000  0.17600000  0.17600000  1.0
