# generated using pymatgen
data_Ba(NO3)2
_symmetry_space_group_name_H-M   'P 1'
_cell_length_a   8.11000000
_cell_length_b   8.11000000
_cell_length_c   8.11000000
_cell_angle_alpha   90.00000000
_cell_angle_beta   90.00000000
_cell_angle_gamma   90.00000000
_symmetry_Int_Tables_number   1
_chemical_formula_structural   Ba(NO3)2
_chemical_formula_sum   'Ba4 N8 O24'
_cell_volume   533.41173100
_cell_formula_units_Z   4
loop_
 _symmetry_equiv_pos_site_id
 _symmetry_equiv_pos_as_xyz
  1  'x, y, z'
loop_
 _atom_site_type_symbol
 _atom_site_label
 _atom_site_symmetry_multiplicity
 _atom_site_fract_x
 _atom_site_fract_y
 _atom_site_fract_z
 _atom_site_occupancy
  Ba  Ba0  1  0.00000000  0.00000000  0.00000000  1.0
  Ba  Ba1  1  0.50000000  0.00000000  0.50000000  1.0
  Ba  Ba2  1  0.50000000  0.50000000  0.00000000  1.0
  Ba  Ba3  1  0.00000000  0.50000000  0.50000000  1.0
  N  N4  1  0.35000000  0.35000000  0.35000000  1.0
  N  N5  1  0.15000000  0.65000000  0.85000000  1.0
  N  N6  1  0.15000000  0.85000000  0.35000000  1.0
  N  N7  1  0.65000000  0.65000000  0.65000000  1.0
  N  N8  1  0.65000000  0.85000000  0.15000000  1.0
  N  N9  1  0.85000000  0.15000000  0.65000000  1.0
  N  N10  1  0.85000000  0.35000000  0.15000000  1.0
  N  N11  1  0.35000000  0.15000000  0.85000000  1.0
  O  O12  1  0.28000000  0.29600000  0.47400000  1.0
  O  O13  1  0.22000000  0.70400000  0.97400000  1.0
  O  O14  1  0.22000000  0.79600000  0.47400000  1.0
  O  O15  1  0.72000000  0.70400000  0.52600000  1.0
  O  O16  1  0.72000000  0.79600000  0.02600000  1.0
  O  O17  1  0.20400000  0.52600000  0.78000000  1.0
  O  O18  1  0.20400000  0.97400000  0.28000000  1.0
  O  O19  1  0.70400000  0.52600000  0.72000000  1.0
  O  O20  1  0.70400000  0.97400000  0.22000000  1.0
  O  O21  1  0.02600000  0.72000000  0.79600000  1.0
  O  O22  1  0.02600000  0.78000000  0.29600000  1.0
  O  O23  1  0.52600000  0.72000000  0.70400000  1.0
  O  O24  1  0.52600000  0.78000000  0.20400000  1.0
  O  O25  1  0.78000000  0.20400000  0.52600000  1.0
  O  O26  1  0.78000000  0.29600000  0.02600000  1.0
  O  O27  1  0.28000000  0.20400000  0.97400000  1.0
  O  O28  1  0.79600000  0.02600000  0.72000000  1.0
  O  O29  1  0.79600000  0.47400000  0.22000000  1.0
  O  O30  1  0.29600000  0.02600000  0.78000000  1.0
  O  O31  1  0.29600000  0.47400000  0.28000000  1.0
  O  O32  1  0.97400000  0.22000000  0.70400000  1.0
  O  O33  1  0.97400000  0.28000000  0.20400000  1.0
  O  O34  1  0.47400000  0.22000000  0.79600000  1.0
  O  O35  1  0.47400000  0.28000000  0.29600000  1.0
