# generated using pymatgen
data_BaSiPd
_symmetry_space_group_name_H-M   'P 1'
_cell_length_a   6.66200000
_cell_length_b   6.66200000
_cell_length_c   6.66200000
_cell_angle_alpha   90.00000000
_cell_angle_beta   90.00000000
_cell_angle_gamma   90.00000000
_symmetry_Int_Tables_number   1
_chemical_formula_structural   BaSiPd
_chemical_formula_sum   'Ba4 Si4 Pd4'
_cell_volume   295.67450953
_cell_formula_units_Z   4
loop_
 _symmetry_equiv_pos_site_id
 _symmetry_equiv_pos_as_xyz
  1  'x, y, z'
loop_
 _atom_site_type_symbol
 _atom_site_label
 _atom_site_symmetry_multiplicity
 _atom_site_fract_x
 _atom_site_fract_y
 _atom_site_fract_z
 _atom_site_occupancy
  Ba  Ba0  1  0.36900000  0.36900000  0.36900000  1.0
  Ba  Ba1  1  0.13100000  0.63100000  0.86900000  1.0
  Ba  Ba2  1  0.63100000  0.86900000  0.13100000  1.0
  Ba  Ba3  1  0.86900000  0.13100000  0.63100000  1.0
  Si  Si4  1  0.66300000  0.66300000  0.66300000  1.0
  Si  Si5  1  0.83700000  0.33700000  0.16300000  1.0
  Si  Si6  1  0.33700000  0.16300000  0.83700000  1.0
  Si  Si7  1  0.16300000  0.83700000  0.33700000  1.0
  Pd  Pd8  1  0.09000000  0.09000000  0.09000000  1.0
  Pd  Pd9  1  0.41000000  0.91000000  0.59000000  1.0
  Pd  Pd10  1  0.91000000  0.59000000  0.41000000  1.0
  Pd  Pd11  1  0.59000000  0.41000000  0.91000000  1.0
