# generated using pymatgen
data_BaSi2
_symmetry_space_group_name_H-M   'P 1'
_cell_length_a   6.53500000
_cell_length_b   6.53500000
_cell_length_c   6.53500000
_cell_angle_alpha   90.00000000
_cell_angle_beta   90.00000000
_cell_angle_gamma   90.00000000
_symmetry_Int_Tables_number   1
_chemical_formula_structural   BaSi2
_chemical_formula_sum   'Ba4 Si8'
_cell_volume   279.08518038
_cell_formula_units_Z   4
loop_
 _symmetry_equiv_pos_site_id
 _symmetry_equiv_pos_as_xyz
  1  'x, y, z'
loop_
 _atom_site_type_symbol
 _atom_site_label
 _atom_site_symmetry_multiplicity
 _atom_site_fract_x
 _atom_site_fract_y
 _atom_site_fract_z
 _atom_site_occupancy
  Ba  Ba0  1  0.37500000  0.37500000  0.37500000  1.0
  Ba  Ba1  1  0.12500000  0.62500000  0.87500000  1.0
  Ba  Ba2  1  0.87500000  0.12500000  0.62500000  1.0
  Ba  Ba3  1  0.62500000  0.87500000  0.12500000  1.0
  Si  Si4  1  0.07690000  0.07690000  0.07690000  1.0
  Si  Si5  1  0.42310000  0.92310000  0.57690000  1.0
  Si  Si6  1  0.17310000  0.82690000  0.32690000  1.0
  Si  Si7  1  0.92310000  0.57690000  0.42310000  1.0
  Si  Si8  1  0.67310000  0.67310000  0.67310000  1.0
  Si  Si9  1  0.57690000  0.42310000  0.92310000  1.0
  Si  Si10  1  0.32690000  0.17310000  0.82690000  1.0
  Si  Si11  1  0.82690000  0.32690000  0.17310000  1.0
