# generated using pymatgen
data_BeAu
_symmetry_space_group_name_H-M   'P 1'
_cell_length_a   4.66800000
_cell_length_b   4.66800000
_cell_length_c   4.66800000
_cell_angle_alpha   90.00000000
_cell_angle_beta   90.00000000
_cell_angle_gamma   90.00000000
_symmetry_Int_Tables_number   1
_chemical_formula_structural   BeAu
_chemical_formula_sum   'Be4 Au4'
_cell_volume   101.71676563
_cell_formula_units_Z   4
loop_
 _symmetry_equiv_pos_site_id
 _symmetry_equiv_pos_as_xyz
  1  'x, y, z'
loop_
 _atom_site_type_symbol
 _atom_site_label
 _atom_site_symmetry_multiplicity
 _atom_site_fract_x
 _atom_site_fract_y
 _atom_site_fract_z
 _atom_site_occupancy
  Be  Be0  1  0.09400000  0.09400000  0.09400000  1.0
  Be  Be1  1  0.40600000  0.90600000  0.59400000  1.0
  Be  Be2  1  0.90600000  0.59400000  0.40600000  1.0
  Be  Be3  1  0.59400000  0.40600000  0.90600000  1.0
  Au  Au4  1  0.35000000  0.35000000  0.35000000  1.0
  Au  Au5  1  0.15000000  0.65000000  0.85000000  1.0
  Au  Au6  1  0.65000000  0.85000000  0.15000000  1.0
  Au  Au7  1  0.85000000  0.15000000  0.65000000  1.0
