# generated using pymatgen
data_BkN
_symmetry_space_group_name_H-M   'P 1'
_cell_length_a   4.95100000
_cell_length_b   4.95100000
_cell_length_c   4.95100000
_cell_angle_alpha   90.00000000
_cell_angle_beta   90.00000000
_cell_angle_gamma   90.00000000
_symmetry_Int_Tables_number   1
_chemical_formula_structural   BkN
_chemical_formula_sum   'Bk4 N4'
_cell_volume   121.36089735
_cell_formula_units_Z   4
loop_
 _symmetry_equiv_pos_site_id
 _symmetry_equiv_pos_as_xyz
  1  'x, y, z'
loop_
 _atom_site_type_symbol
 _atom_site_label
 _atom_site_symmetry_multiplicity
 _atom_site_fract_x
 _atom_site_fract_y
 _atom_site_fract_z
 _atom_site_occupancy
  Bk  Bk0  1  0.00000000  0.00000000  0.00000000  1.0
  Bk  Bk1  1  0.00000000  0.50000000  0.50000000  1.0
  Bk  Bk2  1  0.50000000  0.00000000  0.50000000  1.0
  Bk  Bk3  1  0.50000000  0.50000000  0.00000000  1.0
  N  N4  1  0.50000000  0.50000000  0.50000000  1.0
  N  N5  1  0.50000000  0.00000000  0.00000000  1.0
  N  N6  1  0.00000000  0.50000000  0.00000000  1.0
  N  N7  1  0.00000000  0.00000000  0.50000000  1.0
