# generated using pymatgen
data_CaHg11
_symmetry_space_group_name_H-M   'P 1'
_cell_length_a   9.60000000
_cell_length_b   9.60000000
_cell_length_c   9.60000000
_cell_angle_alpha   90.00000000
_cell_angle_beta   90.00000000
_cell_angle_gamma   90.00000000
_symmetry_Int_Tables_number   1
_chemical_formula_structural   CaHg11
_chemical_formula_sum   'Ca3 Hg33'
_cell_volume   884.73600000
_cell_formula_units_Z   3
loop_
 _symmetry_equiv_pos_site_id
 _symmetry_equiv_pos_as_xyz
  1  'x, y, z'
loop_
 _atom_site_type_symbol
 _atom_site_label
 _atom_site_symmetry_multiplicity
 _atom_site_fract_x
 _atom_site_fract_y
 _atom_site_fract_z
 _atom_site_occupancy
  Ca  Ca0  1  0.00000000  0.50000000  0.50000000  1.0
  Ca  Ca1  1  0.50000000  0.00000000  0.50000000  1.0
  Ca  Ca2  1  0.50000000  0.50000000  0.00000000  1.0
  Hg  Hg3  1  0.50000000  0.15500000  0.15500000  1.0
  Hg  Hg4  1  0.50000000  0.84500000  0.84500000  1.0
  Hg  Hg5  1  0.50000000  0.84500000  0.15500000  1.0
  Hg  Hg6  1  0.50000000  0.15500000  0.84500000  1.0
  Hg  Hg7  1  0.84500000  0.50000000  0.84500000  1.0
  Hg  Hg8  1  0.84500000  0.50000000  0.15500000  1.0
  Hg  Hg9  1  0.84500000  0.84500000  0.50000000  1.0
  Hg  Hg10  1  0.84500000  0.15500000  0.50000000  1.0
  Hg  Hg11  1  0.15500000  0.50000000  0.84500000  1.0
  Hg  Hg12  1  0.15500000  0.50000000  0.15500000  1.0
  Hg  Hg13  1  0.15500000  0.84500000  0.50000000  1.0
  Hg  Hg14  1  0.15500000  0.15500000  0.50000000  1.0
  Hg  Hg15  1  0.00000000  0.22500000  0.22500000  1.0
  Hg  Hg16  1  0.00000000  0.77500000  0.77500000  1.0
  Hg  Hg17  1  0.00000000  0.77500000  0.22500000  1.0
  Hg  Hg18  1  0.00000000  0.22500000  0.77500000  1.0
  Hg  Hg19  1  0.77500000  0.00000000  0.77500000  1.0
  Hg  Hg20  1  0.77500000  0.00000000  0.22500000  1.0
  Hg  Hg21  1  0.77500000  0.77500000  0.00000000  1.0
  Hg  Hg22  1  0.77500000  0.22500000  0.00000000  1.0
  Hg  Hg23  1  0.22500000  0.00000000  0.77500000  1.0
  Hg  Hg24  1  0.22500000  0.00000000  0.22500000  1.0
  Hg  Hg25  1  0.22500000  0.77500000  0.00000000  1.0
  Hg  Hg26  1  0.22500000  0.22500000  0.00000000  1.0
  Hg  Hg27  1  0.34500000  0.34500000  0.34500000  1.0
  Hg  Hg28  1  0.65500000  0.65500000  0.65500000  1.0
  Hg  Hg29  1  0.65500000  0.65500000  0.34500000  1.0
  Hg  Hg30  1  0.65500000  0.34500000  0.65500000  1.0
  Hg  Hg31  1  0.65500000  0.34500000  0.34500000  1.0
  Hg  Hg32  1  0.34500000  0.65500000  0.65500000  1.0
  Hg  Hg33  1  0.34500000  0.65500000  0.34500000  1.0
  Hg  Hg34  1  0.34500000  0.34500000  0.65500000  1.0
  Hg  Hg35  1  0.00000000  0.00000000  0.00000000  1.0
