# generated using pymatgen
data_CaMgNiH4
_symmetry_space_group_name_H-M   'P 1'
_cell_length_a   6.74140000
_cell_length_b   6.74140000
_cell_length_c   6.74140000
_cell_angle_alpha   90.00000000
_cell_angle_beta   90.00000000
_cell_angle_gamma   90.00000000
_symmetry_Int_Tables_number   1
_chemical_formula_structural   CaMgNiH4
_chemical_formula_sum   'Ca4 Mg4 Ni4 H16'
_cell_volume   306.37285955
_cell_formula_units_Z   4
loop_
 _symmetry_equiv_pos_site_id
 _symmetry_equiv_pos_as_xyz
  1  'x, y, z'
loop_
 _atom_site_type_symbol
 _atom_site_label
 _atom_site_symmetry_multiplicity
 _atom_site_fract_x
 _atom_site_fract_y
 _atom_site_fract_z
 _atom_site_occupancy
  Ca  Ca0  1  0.82710000  0.82710000  0.82710000  1.0
  Ca  Ca1  1  0.67290000  0.17290000  0.32710000  1.0
  Ca  Ca2  1  0.17290000  0.32710000  0.67290000  1.0
  Ca  Ca3  1  0.32710000  0.67290000  0.17290000  1.0
  Mg  Mg4  1  0.16400000  0.16400000  0.16400000  1.0
  Mg  Mg5  1  0.33600000  0.83600000  0.66400000  1.0
  Mg  Mg6  1  0.83600000  0.66400000  0.33600000  1.0
  Mg  Mg7  1  0.66400000  0.33600000  0.83600000  1.0
  Ni  Ni8  1  0.54680000  0.54680000  0.54680000  1.0
  Ni  Ni9  1  0.95320000  0.45320000  0.04680000  1.0
  Ni  Ni10  1  0.45320000  0.04680000  0.95320000  1.0
  Ni  Ni11  1  0.04680000  0.95320000  0.45320000  1.0
  H  H12  1  0.04440000  0.43100000  0.26560000  1.0
  H  H13  1  0.45560000  0.56900000  0.76560000  1.0
  H  H14  1  0.95560000  0.93100000  0.23440000  1.0
  H  H15  1  0.06900000  0.73440000  0.54440000  1.0
  H  H16  1  0.56900000  0.76560000  0.45560000  1.0
  H  H17  1  0.23440000  0.95560000  0.93100000  1.0
  H  H18  1  0.73440000  0.54440000  0.06900000  1.0
  H  H19  1  0.54440000  0.06900000  0.73440000  1.0
  H  H20  1  0.93100000  0.23440000  0.95560000  1.0
  H  H21  1  0.43100000  0.26560000  0.04440000  1.0
  H  H22  1  0.76560000  0.45560000  0.56900000  1.0
  H  H23  1  0.26560000  0.04440000  0.43100000  1.0
  H  H24  1  0.40980000  0.40980000  0.40980000  1.0
  H  H25  1  0.09020000  0.59020000  0.90980000  1.0
  H  H26  1  0.59020000  0.90980000  0.09020000  1.0
  H  H27  1  0.90980000  0.09020000  0.59020000  1.0
