# generated using pymatgen
data_CaSiPt
_symmetry_space_group_name_H-M   'P 1'
_cell_length_a   6.32000000
_cell_length_b   6.32000000
_cell_length_c   6.32000000
_cell_angle_alpha   90.00000000
_cell_angle_beta   90.00000000
_cell_angle_gamma   90.00000000
_symmetry_Int_Tables_number   1
_chemical_formula_structural   CaSiPt
_chemical_formula_sum   'Ca4 Si4 Pt4'
_cell_volume   252.43596800
_cell_formula_units_Z   4
loop_
 _symmetry_equiv_pos_site_id
 _symmetry_equiv_pos_as_xyz
  1  'x, y, z'
loop_
 _atom_site_type_symbol
 _atom_site_label
 _atom_site_symmetry_multiplicity
 _atom_site_fract_x
 _atom_site_fract_y
 _atom_site_fract_z
 _atom_site_occupancy
  Ca  Ca0  1  0.37240000  0.37240000  0.37240000  1.0
  Ca  Ca1  1  0.12760000  0.62760000  0.87240000  1.0
  Ca  Ca2  1  0.62760000  0.87240000  0.12760000  1.0
  Ca  Ca3  1  0.87240000  0.12760000  0.62760000  1.0
  Si  Si4  1  0.66550000  0.66550000  0.66550000  1.0
  Si  Si5  1  0.83450000  0.33450000  0.16550000  1.0
  Si  Si6  1  0.33450000  0.16550000  0.83450000  1.0
  Si  Si7  1  0.16550000  0.83450000  0.33450000  1.0
  Pt  Pt8  1  0.08110000  0.08110000  0.08110000  1.0
  Pt  Pt9  1  0.41890000  0.91890000  0.58110000  1.0
  Pt  Pt10  1  0.91890000  0.58110000  0.41890000  1.0
  Pt  Pt11  1  0.58110000  0.41890000  0.91890000  1.0
