# generated using pymatgen
data_Sn7Rh3
_symmetry_space_group_name_H-M   'P 1'
_cell_length_a   9.34400000
_cell_length_b   9.34400000
_cell_length_c   9.34400000
_cell_angle_alpha   90.00000000
_cell_angle_beta   90.00000000
_cell_angle_gamma   90.00000000
_symmetry_Int_Tables_number   1
_chemical_formula_structural   Sn7Rh3
_chemical_formula_sum   'Sn28 Rh12'
_cell_volume   815.82777958
_cell_formula_units_Z   4
loop_
 _symmetry_equiv_pos_site_id
 _symmetry_equiv_pos_as_xyz
  1  'x, y, z'
loop_
 _atom_site_type_symbol
 _atom_site_label
 _atom_site_symmetry_multiplicity
 _atom_site_fract_x
 _atom_site_fract_y
 _atom_site_fract_z
 _atom_site_occupancy
  Sn  Sn0  1  0.15600000  0.15600000  0.15600000  1.0
  Sn  Sn1  1  0.84400000  0.84400000  0.84400000  1.0
  Sn  Sn2  1  0.84400000  0.84400000  0.15600000  1.0
  Sn  Sn3  1  0.84400000  0.15600000  0.84400000  1.0
  Sn  Sn4  1  0.84400000  0.15600000  0.15600000  1.0
  Sn  Sn5  1  0.15600000  0.84400000  0.84400000  1.0
  Sn  Sn6  1  0.15600000  0.84400000  0.15600000  1.0
  Sn  Sn7  1  0.15600000  0.15600000  0.84400000  1.0
  Sn  Sn8  1  0.65600000  0.65600000  0.65600000  1.0
  Sn  Sn9  1  0.34400000  0.34400000  0.34400000  1.0
  Sn  Sn10  1  0.34400000  0.34400000  0.65600000  1.0
  Sn  Sn11  1  0.34400000  0.65600000  0.34400000  1.0
  Sn  Sn12  1  0.34400000  0.65600000  0.65600000  1.0
  Sn  Sn13  1  0.65600000  0.34400000  0.34400000  1.0
  Sn  Sn14  1  0.65600000  0.34400000  0.65600000  1.0
  Sn  Sn15  1  0.65600000  0.65600000  0.34400000  1.0
  Sn  Sn16  1  0.25000000  0.00000000  0.50000000  1.0
  Sn  Sn17  1  0.75000000  0.00000000  0.50000000  1.0
  Sn  Sn18  1  0.75000000  0.50000000  0.00000000  1.0
  Sn  Sn19  1  0.00000000  0.75000000  0.50000000  1.0
  Sn  Sn20  1  0.00000000  0.50000000  0.75000000  1.0
  Sn  Sn21  1  0.00000000  0.50000000  0.25000000  1.0
  Sn  Sn22  1  0.00000000  0.25000000  0.50000000  1.0
  Sn  Sn23  1  0.50000000  0.75000000  0.00000000  1.0
  Sn  Sn24  1  0.50000000  0.00000000  0.75000000  1.0
  Sn  Sn25  1  0.50000000  0.00000000  0.25000000  1.0
  Sn  Sn26  1  0.50000000  0.25000000  0.00000000  1.0
  Sn  Sn27  1  0.25000000  0.50000000  0.00000000  1.0
  Rh  Rh28  1  0.34200000  0.00000000  0.00000000  1.0
  Rh  Rh29  1  0.65800000  0.00000000  0.00000000  1.0
  Rh  Rh30  1  0.00000000  0.65800000  0.00000000  1.0
  Rh  Rh31  1  0.00000000  0.00000000  0.65800000  1.0
  Rh  Rh32  1  0.00000000  0.00000000  0.34200000  1.0
  Rh  Rh33  1  0.00000000  0.34200000  0.00000000  1.0
  Rh  Rh34  1  0.84200000  0.50000000  0.50000000  1.0
  Rh  Rh35  1  0.15800000  0.50000000  0.50000000  1.0
  Rh  Rh36  1  0.50000000  0.15800000  0.50000000  1.0
  Rh  Rh37  1  0.50000000  0.50000000  0.15800000  1.0
  Rh  Rh38  1  0.50000000  0.50000000  0.84200000  1.0
  Rh  Rh39  1  0.50000000  0.84200000  0.50000000  1.0
