# generated using pymatgen
data_Ce3Bi4Pt3
_symmetry_space_group_name_H-M   'P 1'
_cell_length_a   9.99800000
_cell_length_b   9.99800000
_cell_length_c   9.99800000
_cell_angle_alpha   90.00000000
_cell_angle_beta   90.00000000
_cell_angle_gamma   90.00000000
_symmetry_Int_Tables_number   1
_chemical_formula_structural   Ce3Bi4Pt3
_chemical_formula_sum   'Ce12 Bi16 Pt12'
_cell_volume   999.40011999
_cell_formula_units_Z   4
loop_
 _symmetry_equiv_pos_site_id
 _symmetry_equiv_pos_as_xyz
  1  'x, y, z'
loop_
 _atom_site_type_symbol
 _atom_site_label
 _atom_site_symmetry_multiplicity
 _atom_site_fract_x
 _atom_site_fract_y
 _atom_site_fract_z
 _atom_site_occupancy
  Ce  Ce0  1  0.87500000  0.00000000  0.25000000  1.0
  Ce  Ce1  1  0.62500000  0.00000000  0.75000000  1.0
  Ce  Ce2  1  0.37500000  0.50000000  0.75000000  1.0
  Ce  Ce3  1  0.12500000  0.50000000  0.25000000  1.0
  Ce  Ce4  1  0.50000000  0.25000000  0.12500000  1.0
  Ce  Ce5  1  0.25000000  0.12500000  0.50000000  1.0
  Ce  Ce6  1  0.00000000  0.25000000  0.87500000  1.0
  Ce  Ce7  1  0.75000000  0.37500000  0.50000000  1.0
  Ce  Ce8  1  0.25000000  0.87500000  0.00000000  1.0
  Ce  Ce9  1  0.75000000  0.62500000  0.00000000  1.0
  Ce  Ce10  1  0.00000000  0.75000000  0.62500000  1.0
  Ce  Ce11  1  0.50000000  0.75000000  0.37500000  1.0
  Bi  Bi12  1  0.08570000  0.08570000  0.08570000  1.0
  Bi  Bi13  1  0.41430000  0.08570000  0.91430000  1.0
  Bi  Bi14  1  0.16430000  0.33570000  0.66430000  1.0
  Bi  Bi15  1  0.91430000  0.41430000  0.08570000  1.0
  Bi  Bi16  1  0.66430000  0.16430000  0.33570000  1.0
  Bi  Bi17  1  0.33570000  0.66430000  0.16430000  1.0
  Bi  Bi18  1  0.33570000  0.33570000  0.33570000  1.0
  Bi  Bi19  1  0.08570000  0.91430000  0.41430000  1.0
  Bi  Bi20  1  0.58570000  0.58570000  0.58570000  1.0
  Bi  Bi21  1  0.91430000  0.58570000  0.41430000  1.0
  Bi  Bi22  1  0.66430000  0.83570000  0.16430000  1.0
  Bi  Bi23  1  0.41430000  0.91430000  0.58570000  1.0
  Bi  Bi24  1  0.16430000  0.66430000  0.83570000  1.0
  Bi  Bi25  1  0.83570000  0.16430000  0.66430000  1.0
  Bi  Bi26  1  0.83570000  0.83570000  0.83570000  1.0
  Bi  Bi27  1  0.58570000  0.41430000  0.91430000  1.0
  Pt  Pt28  1  0.37500000  0.00000000  0.25000000  1.0
  Pt  Pt29  1  0.12500000  0.00000000  0.75000000  1.0
  Pt  Pt30  1  0.87500000  0.50000000  0.75000000  1.0
  Pt  Pt31  1  0.62500000  0.50000000  0.25000000  1.0
  Pt  Pt32  1  0.50000000  0.25000000  0.62500000  1.0
  Pt  Pt33  1  0.25000000  0.62500000  0.50000000  1.0
  Pt  Pt34  1  0.00000000  0.25000000  0.37500000  1.0
  Pt  Pt35  1  0.75000000  0.87500000  0.50000000  1.0
  Pt  Pt36  1  0.25000000  0.37500000  0.00000000  1.0
  Pt  Pt37  1  0.75000000  0.12500000  0.00000000  1.0
  Pt  Pt38  1  0.00000000  0.75000000  0.12500000  1.0
  Pt  Pt39  1  0.50000000  0.75000000  0.87500000  1.0
