# generated using pymatgen
data_Ce4As3
_symmetry_space_group_name_H-M   'P 1'
_cell_length_a   9.05200000
_cell_length_b   9.05200000
_cell_length_c   9.05200000
_cell_angle_alpha   90.00000000
_cell_angle_beta   90.00000000
_cell_angle_gamma   90.00000000
_symmetry_Int_Tables_number   1
_chemical_formula_structural   Ce4As3
_chemical_formula_sum   'Ce16 As12'
_cell_volume   741.70914861
_cell_formula_units_Z   4
loop_
 _symmetry_equiv_pos_site_id
 _symmetry_equiv_pos_as_xyz
  1  'x, y, z'
loop_
 _atom_site_type_symbol
 _atom_site_label
 _atom_site_symmetry_multiplicity
 _atom_site_fract_x
 _atom_site_fract_y
 _atom_site_fract_z
 _atom_site_occupancy
  Ce  Ce0  1  0.07000000  0.07000000  0.07000000  1.0
  Ce  Ce1  1  0.43000000  0.07000000  0.93000000  1.0
  Ce  Ce2  1  0.18000000  0.32000000  0.68000000  1.0
  Ce  Ce3  1  0.93000000  0.43000000  0.07000000  1.0
  Ce  Ce4  1  0.68000000  0.18000000  0.32000000  1.0
  Ce  Ce5  1  0.32000000  0.68000000  0.18000000  1.0
  Ce  Ce6  1  0.32000000  0.32000000  0.32000000  1.0
  Ce  Ce7  1  0.07000000  0.93000000  0.43000000  1.0
  Ce  Ce8  1  0.57000000  0.57000000  0.57000000  1.0
  Ce  Ce9  1  0.93000000  0.57000000  0.43000000  1.0
  Ce  Ce10  1  0.68000000  0.82000000  0.18000000  1.0
  Ce  Ce11  1  0.43000000  0.93000000  0.57000000  1.0
  Ce  Ce12  1  0.18000000  0.68000000  0.82000000  1.0
  Ce  Ce13  1  0.82000000  0.18000000  0.68000000  1.0
  Ce  Ce14  1  0.82000000  0.82000000  0.82000000  1.0
  Ce  Ce15  1  0.57000000  0.43000000  0.93000000  1.0
  As  As16  1  0.37500000  0.00000000  0.25000000  1.0
  As  As17  1  0.12500000  0.00000000  0.75000000  1.0
  As  As18  1  0.87500000  0.50000000  0.75000000  1.0
  As  As19  1  0.62500000  0.50000000  0.25000000  1.0
  As  As20  1  0.50000000  0.25000000  0.62500000  1.0
  As  As21  1  0.25000000  0.62500000  0.50000000  1.0
  As  As22  1  0.00000000  0.25000000  0.37500000  1.0
  As  As23  1  0.75000000  0.87500000  0.50000000  1.0
  As  As24  1  0.25000000  0.37500000  0.00000000  1.0
  As  As25  1  0.75000000  0.12500000  0.00000000  1.0
  As  As26  1  0.00000000  0.75000000  0.12500000  1.0
  As  As27  1  0.50000000  0.75000000  0.87500000  1.0
