# generated using pymatgen
data_CoAs3
_symmetry_space_group_name_H-M   'P 1'
_cell_length_a   8.19500000
_cell_length_b   8.19500000
_cell_length_c   8.19500000
_cell_angle_alpha   90.00000000
_cell_angle_beta   90.00000000
_cell_angle_gamma   90.00000000
_symmetry_Int_Tables_number   1
_chemical_formula_structural   CoAs3
_chemical_formula_sum   'Co8 As24'
_cell_volume   550.36001488
_cell_formula_units_Z   8
loop_
 _symmetry_equiv_pos_site_id
 _symmetry_equiv_pos_as_xyz
  1  'x, y, z'
loop_
 _atom_site_type_symbol
 _atom_site_label
 _atom_site_symmetry_multiplicity
 _atom_site_fract_x
 _atom_site_fract_y
 _atom_site_fract_z
 _atom_site_occupancy
  Co  Co0  1  0.25000000  0.25000000  0.25000000  1.0
  Co  Co1  1  0.75000000  0.75000000  0.75000000  1.0
  Co  Co2  1  0.75000000  0.75000000  0.25000000  1.0
  Co  Co3  1  0.75000000  0.25000000  0.75000000  1.0
  Co  Co4  1  0.75000000  0.25000000  0.25000000  1.0
  Co  Co5  1  0.25000000  0.75000000  0.75000000  1.0
  Co  Co6  1  0.25000000  0.75000000  0.25000000  1.0
  Co  Co7  1  0.25000000  0.25000000  0.75000000  1.0
  As  As8  1  0.00000000  0.15030000  0.34310000  1.0
  As  As9  1  0.00000000  0.84970000  0.65690000  1.0
  As  As10  1  0.00000000  0.84970000  0.34310000  1.0
  As  As11  1  0.00000000  0.15030000  0.65690000  1.0
  As  As12  1  0.84970000  0.65690000  0.00000000  1.0
  As  As13  1  0.84970000  0.34310000  0.00000000  1.0
  As  As14  1  0.65690000  0.00000000  0.84970000  1.0
  As  As15  1  0.65690000  0.00000000  0.15030000  1.0
  As  As16  1  0.15030000  0.65690000  0.00000000  1.0
  As  As17  1  0.15030000  0.34310000  0.00000000  1.0
  As  As18  1  0.34310000  0.00000000  0.84970000  1.0
  As  As19  1  0.34310000  0.00000000  0.15030000  1.0
  As  As20  1  0.50000000  0.65030000  0.84310000  1.0
  As  As21  1  0.50000000  0.34970000  0.15690000  1.0
  As  As22  1  0.50000000  0.34970000  0.84310000  1.0
  As  As23  1  0.50000000  0.65030000  0.15690000  1.0
  As  As24  1  0.34970000  0.15690000  0.50000000  1.0
  As  As25  1  0.34970000  0.84310000  0.50000000  1.0
  As  As26  1  0.15690000  0.50000000  0.34970000  1.0
  As  As27  1  0.15690000  0.50000000  0.65030000  1.0
  As  As28  1  0.65030000  0.15690000  0.50000000  1.0
  As  As29  1  0.65030000  0.84310000  0.50000000  1.0
  As  As30  1  0.84310000  0.50000000  0.34970000  1.0
  As  As31  1  0.84310000  0.50000000  0.65030000  1.0
