# generated using pymatgen
data_CoAsS
_symmetry_space_group_name_H-M   'P 1'
_cell_length_a   5.57600000
_cell_length_b   5.57600000
_cell_length_c   5.57600000
_cell_angle_alpha   90.00000000
_cell_angle_beta   90.00000000
_cell_angle_gamma   90.00000000
_symmetry_Int_Tables_number   1
_chemical_formula_structural   CoAsS
_chemical_formula_sum   'Co4 As4 S4'
_cell_volume   173.36774298
_cell_formula_units_Z   4
loop_
 _symmetry_equiv_pos_site_id
 _symmetry_equiv_pos_as_xyz
  1  'x, y, z'
loop_
 _atom_site_type_symbol
 _atom_site_label
 _atom_site_symmetry_multiplicity
 _atom_site_fract_x
 _atom_site_fract_y
 _atom_site_fract_z
 _atom_site_occupancy
  Co  Co0  1  0.01877000  0.01877000  0.01877000  1.0
  Co  Co1  1  0.48123000  0.98123000  0.51877000  1.0
  Co  Co2  1  0.98123000  0.51877000  0.48123000  1.0
  Co  Co3  1  0.51877000  0.48123000  0.98123000  1.0
  As  As4  1  0.37326000  0.37326000  0.37326000  1.0
  As  As5  1  0.12674000  0.62674000  0.87326000  1.0
  As  As6  1  0.62674000  0.87326000  0.12674000  1.0
  As  As7  1  0.87326000  0.12674000  0.62674000  1.0
  S  S8  1  0.61882000  0.61882000  0.61882000  1.0
  S  S9  1  0.88118000  0.38118000  0.11882000  1.0
  S  S10  1  0.38118000  0.11882000  0.88118000  1.0
  S  S11  1  0.11882000  0.88118000  0.38118000  1.0
