# generated using pymatgen
data_CoGe
_symmetry_space_group_name_H-M   'P 1'
_cell_length_a   4.63700000
_cell_length_b   4.63700000
_cell_length_c   4.63700000
_cell_angle_alpha   90.00000000
_cell_angle_beta   90.00000000
_cell_angle_gamma   90.00000000
_symmetry_Int_Tables_number   1
_chemical_formula_structural   CoGe
_chemical_formula_sum   'Co4 Ge4'
_cell_volume   99.70370285
_cell_formula_units_Z   4
loop_
 _symmetry_equiv_pos_site_id
 _symmetry_equiv_pos_as_xyz
  1  'x, y, z'
loop_
 _atom_site_type_symbol
 _atom_site_label
 _atom_site_symmetry_multiplicity
 _atom_site_fract_x
 _atom_site_fract_y
 _atom_site_fract_z
 _atom_site_occupancy
  Co  Co0  1  0.38500000  0.38500000  0.38500000  1.0
  Co  Co1  1  0.11500000  0.61500000  0.88500000  1.0
  Co  Co2  1  0.61500000  0.88500000  0.11500000  1.0
  Co  Co3  1  0.88500000  0.11500000  0.61500000  1.0
  Ge  Ge4  1  0.09000000  0.09000000  0.09000000  1.0
  Ge  Ge5  1  0.41000000  0.91000000  0.59000000  1.0
  Ge  Ge6  1  0.91000000  0.59000000  0.41000000  1.0
  Ge  Ge7  1  0.59000000  0.41000000  0.91000000  1.0
