# generated using pymatgen
data_CoP3
_symmetry_space_group_name_H-M   'P 1'
_cell_length_a   7.70730000
_cell_length_b   7.70730000
_cell_length_c   7.70730000
_cell_angle_alpha   90.00000000
_cell_angle_beta   90.00000000
_cell_angle_gamma   90.00000000
_symmetry_Int_Tables_number   1
_chemical_formula_structural   CoP3
_chemical_formula_sum   'Co8 P24'
_cell_volume   457.83268239
_cell_formula_units_Z   8
loop_
 _symmetry_equiv_pos_site_id
 _symmetry_equiv_pos_as_xyz
  1  'x, y, z'
loop_
 _atom_site_type_symbol
 _atom_site_label
 _atom_site_symmetry_multiplicity
 _atom_site_fract_x
 _atom_site_fract_y
 _atom_site_fract_z
 _atom_site_occupancy
  Co  Co0  1  0.25000000  0.25000000  0.25000000  1.0
  Co  Co1  1  0.75000000  0.75000000  0.75000000  1.0
  Co  Co2  1  0.75000000  0.75000000  0.25000000  1.0
  Co  Co3  1  0.75000000  0.25000000  0.75000000  1.0
  Co  Co4  1  0.75000000  0.25000000  0.25000000  1.0
  Co  Co5  1  0.25000000  0.75000000  0.75000000  1.0
  Co  Co6  1  0.25000000  0.75000000  0.25000000  1.0
  Co  Co7  1  0.25000000  0.25000000  0.75000000  1.0
  P  P8  1  0.00000000  0.14530000  0.34820000  1.0
  P  P9  1  0.00000000  0.85470000  0.65180000  1.0
  P  P10  1  0.00000000  0.85470000  0.34820000  1.0
  P  P11  1  0.00000000  0.14530000  0.65180000  1.0
  P  P12  1  0.85470000  0.65180000  0.00000000  1.0
  P  P13  1  0.85470000  0.34820000  0.00000000  1.0
  P  P14  1  0.65180000  0.00000000  0.85470000  1.0
  P  P15  1  0.65180000  0.00000000  0.14530000  1.0
  P  P16  1  0.14530000  0.65180000  0.00000000  1.0
  P  P17  1  0.14530000  0.34820000  0.00000000  1.0
  P  P18  1  0.34820000  0.00000000  0.85470000  1.0
  P  P19  1  0.34820000  0.00000000  0.14530000  1.0
  P  P20  1  0.50000000  0.64530000  0.84820000  1.0
  P  P21  1  0.50000000  0.35470000  0.15180000  1.0
  P  P22  1  0.50000000  0.35470000  0.84820000  1.0
  P  P23  1  0.50000000  0.64530000  0.15180000  1.0
  P  P24  1  0.35470000  0.15180000  0.50000000  1.0
  P  P25  1  0.35470000  0.84820000  0.50000000  1.0
  P  P26  1  0.15180000  0.50000000  0.35470000  1.0
  P  P27  1  0.15180000  0.50000000  0.64530000  1.0
  P  P28  1  0.64530000  0.15180000  0.50000000  1.0
  P  P29  1  0.64530000  0.84820000  0.50000000  1.0
  P  P30  1  0.84820000  0.50000000  0.35470000  1.0
  P  P31  1  0.84820000  0.50000000  0.64530000  1.0
