# generated using pymatgen
data_CoSb3
_symmetry_space_group_name_H-M   'P 1'
_cell_length_a   9.03850000
_cell_length_b   9.03850000
_cell_length_c   9.03850000
_cell_angle_alpha   90.00000000
_cell_angle_beta   90.00000000
_cell_angle_gamma   90.00000000
_symmetry_Int_Tables_number   1
_chemical_formula_structural   CoSb3
_chemical_formula_sum   'Co8 Sb24'
_cell_volume   738.39557782
_cell_formula_units_Z   8
loop_
 _symmetry_equiv_pos_site_id
 _symmetry_equiv_pos_as_xyz
  1  'x, y, z'
loop_
 _atom_site_type_symbol
 _atom_site_label
 _atom_site_symmetry_multiplicity
 _atom_site_fract_x
 _atom_site_fract_y
 _atom_site_fract_z
 _atom_site_occupancy
  Co  Co0  1  0.25000000  0.25000000  0.25000000  1.0
  Co  Co1  1  0.75000000  0.75000000  0.75000000  1.0
  Co  Co2  1  0.75000000  0.75000000  0.25000000  1.0
  Co  Co3  1  0.75000000  0.25000000  0.75000000  1.0
  Co  Co4  1  0.75000000  0.25000000  0.25000000  1.0
  Co  Co5  1  0.25000000  0.75000000  0.75000000  1.0
  Co  Co6  1  0.25000000  0.75000000  0.25000000  1.0
  Co  Co7  1  0.25000000  0.25000000  0.75000000  1.0
  Sb  Sb8  1  0.00000000  0.15788000  0.33537000  1.0
  Sb  Sb9  1  0.00000000  0.84212000  0.66463000  1.0
  Sb  Sb10  1  0.00000000  0.84212000  0.33537000  1.0
  Sb  Sb11  1  0.00000000  0.15788000  0.66463000  1.0
  Sb  Sb12  1  0.84212000  0.66463000  0.00000000  1.0
  Sb  Sb13  1  0.84212000  0.33537000  0.00000000  1.0
  Sb  Sb14  1  0.66463000  0.00000000  0.84212000  1.0
  Sb  Sb15  1  0.66463000  0.00000000  0.15788000  1.0
  Sb  Sb16  1  0.15788000  0.66463000  0.00000000  1.0
  Sb  Sb17  1  0.15788000  0.33537000  0.00000000  1.0
  Sb  Sb18  1  0.33537000  0.00000000  0.84212000  1.0
  Sb  Sb19  1  0.33537000  0.00000000  0.15788000  1.0
  Sb  Sb20  1  0.50000000  0.65788000  0.83537000  1.0
  Sb  Sb21  1  0.50000000  0.34212000  0.16463000  1.0
  Sb  Sb22  1  0.50000000  0.34212000  0.83537000  1.0
  Sb  Sb23  1  0.50000000  0.65788000  0.16463000  1.0
  Sb  Sb24  1  0.34212000  0.16463000  0.50000000  1.0
  Sb  Sb25  1  0.34212000  0.83537000  0.50000000  1.0
  Sb  Sb26  1  0.16463000  0.50000000  0.34212000  1.0
  Sb  Sb27  1  0.16463000  0.50000000  0.65788000  1.0
  Sb  Sb28  1  0.65788000  0.16463000  0.50000000  1.0
  Sb  Sb29  1  0.65788000  0.83537000  0.50000000  1.0
  Sb  Sb30  1  0.83537000  0.50000000  0.34212000  1.0
  Sb  Sb31  1  0.83537000  0.50000000  0.65788000  1.0
