# generated using pymatgen
data_Al8Cr5
_symmetry_space_group_name_H-M   'P 1'
_cell_length_a   9.06500000
_cell_length_b   9.06500000
_cell_length_c   9.06500000
_cell_angle_alpha   90.00000000
_cell_angle_beta   90.00000000
_cell_angle_gamma   90.00000000
_symmetry_Int_Tables_number   1
_chemical_formula_structural   Al8Cr5
_chemical_formula_sum   'Al32 Cr20'
_cell_volume   744.90934962
_cell_formula_units_Z   4
loop_
 _symmetry_equiv_pos_site_id
 _symmetry_equiv_pos_as_xyz
  1  'x, y, z'
loop_
 _atom_site_type_symbol
 _atom_site_label
 _atom_site_symmetry_multiplicity
 _atom_site_fract_x
 _atom_site_fract_y
 _atom_site_fract_z
 _atom_site_occupancy
  Al  Al0  1  0.31280000  0.31280000  0.03660000  1.0
  Al  Al1  1  0.68720000  0.68720000  0.03660000  1.0
  Al  Al2  1  0.68720000  0.96340000  0.31280000  1.0
  Al  Al3  1  0.68720000  0.31280000  0.96340000  1.0
  Al  Al4  1  0.68720000  0.03660000  0.68720000  1.0
  Al  Al5  1  0.96340000  0.68720000  0.31280000  1.0
  Al  Al6  1  0.96340000  0.31280000  0.68720000  1.0
  Al  Al7  1  0.31280000  0.68720000  0.96340000  1.0
  Al  Al8  1  0.31280000  0.96340000  0.68720000  1.0
  Al  Al9  1  0.31280000  0.03660000  0.31280000  1.0
  Al  Al10  1  0.03660000  0.68720000  0.68720000  1.0
  Al  Al11  1  0.03660000  0.31280000  0.31280000  1.0
  Al  Al12  1  0.81280000  0.81280000  0.53660000  1.0
  Al  Al13  1  0.18720000  0.18720000  0.53660000  1.0
  Al  Al14  1  0.18720000  0.46340000  0.81280000  1.0
  Al  Al15  1  0.18720000  0.81280000  0.46340000  1.0
  Al  Al16  1  0.18720000  0.53660000  0.18720000  1.0
  Al  Al17  1  0.46340000  0.18720000  0.81280000  1.0
  Al  Al18  1  0.46340000  0.81280000  0.18720000  1.0
  Al  Al19  1  0.81280000  0.18720000  0.46340000  1.0
  Al  Al20  1  0.81280000  0.46340000  0.18720000  1.0
  Al  Al21  1  0.81280000  0.53660000  0.81280000  1.0
  Al  Al22  1  0.53660000  0.18720000  0.18720000  1.0
  Al  Al23  1  0.53660000  0.81280000  0.81280000  1.0
  Al  Al24  1  0.10890000  0.10890000  0.10890000  1.0
  Al  Al25  1  0.89110000  0.89110000  0.10890000  1.0
  Al  Al26  1  0.89110000  0.10890000  0.89110000  1.0
  Al  Al27  1  0.10890000  0.89110000  0.89110000  1.0
  Al  Al28  1  0.60890000  0.60890000  0.60890000  1.0
  Al  Al29  1  0.39110000  0.39110000  0.60890000  1.0
  Al  Al30  1  0.39110000  0.60890000  0.39110000  1.0
  Al  Al31  1  0.60890000  0.39110000  0.39110000  1.0
  Cr  Cr32  1  0.35580000  0.00000000  0.00000000  1.0
  Cr  Cr33  1  0.64420000  0.00000000  0.00000000  1.0
  Cr  Cr34  1  0.00000000  0.64420000  0.00000000  1.0
  Cr  Cr35  1  0.00000000  0.00000000  0.35580000  1.0
  Cr  Cr36  1  0.00000000  0.35580000  0.00000000  1.0
  Cr  Cr37  1  0.00000000  0.00000000  0.64420000  1.0
  Cr  Cr38  1  0.85580000  0.50000000  0.50000000  1.0
  Cr  Cr39  1  0.14420000  0.50000000  0.50000000  1.0
  Cr  Cr40  1  0.50000000  0.14420000  0.50000000  1.0
  Cr  Cr41  1  0.50000000  0.50000000  0.85580000  1.0
  Cr  Cr42  1  0.50000000  0.85580000  0.50000000  1.0
  Cr  Cr43  1  0.50000000  0.50000000  0.14420000  1.0
  Cr  Cr44  1  0.32800000  0.32800000  0.32800000  1.0
  Cr  Cr45  1  0.67200000  0.67200000  0.32800000  1.0
  Cr  Cr46  1  0.67200000  0.32800000  0.67200000  1.0
  Cr  Cr47  1  0.32800000  0.67200000  0.67200000  1.0
  Cr  Cr48  1  0.82800000  0.82800000  0.82800000  1.0
  Cr  Cr49  1  0.17200000  0.17200000  0.82800000  1.0
  Cr  Cr50  1  0.17200000  0.82800000  0.17200000  1.0
  Cr  Cr51  1  0.82800000  0.17200000  0.17200000  1.0
