# generated using pymatgen
data_CrGe
_symmetry_space_group_name_H-M   'P 1'
_cell_length_a   4.79600000
_cell_length_b   4.79600000
_cell_length_c   4.79600000
_cell_angle_alpha   90.00000000
_cell_angle_beta   90.00000000
_cell_angle_gamma   90.00000000
_symmetry_Int_Tables_number   1
_chemical_formula_structural   CrGe
_chemical_formula_sum   'Cr4 Ge4'
_cell_volume   110.31575034
_cell_formula_units_Z   4
loop_
 _symmetry_equiv_pos_site_id
 _symmetry_equiv_pos_as_xyz
  1  'x, y, z'
loop_
 _atom_site_type_symbol
 _atom_site_label
 _atom_site_symmetry_multiplicity
 _atom_site_fract_x
 _atom_site_fract_y
 _atom_site_fract_z
 _atom_site_occupancy
  Cr  Cr0  1  0.38650000  0.38650000  0.38650000  1.0
  Cr  Cr1  1  0.11350000  0.61350000  0.88650000  1.0
  Cr  Cr2  1  0.61350000  0.88650000  0.11350000  1.0
  Cr  Cr3  1  0.88650000  0.11350000  0.61350000  1.0
  Ge  Ge4  1  0.09262000  0.09262000  0.09262000  1.0
  Ge  Ge5  1  0.40738000  0.90738000  0.59262000  1.0
  Ge  Ge6  1  0.90738000  0.59262000  0.40738000  1.0
  Ge  Ge7  1  0.59262000  0.40738000  0.90738000  1.0
