# generated using pymatgen
data_CrSi
_symmetry_space_group_name_H-M   'P 1'
_cell_length_a   4.62000000
_cell_length_b   4.62000000
_cell_length_c   4.62000000
_cell_angle_alpha   90.00000000
_cell_angle_beta   90.00000000
_cell_angle_gamma   90.00000000
_symmetry_Int_Tables_number   1
_chemical_formula_structural   CrSi
_chemical_formula_sum   'Cr4 Si4'
_cell_volume   98.61112800
_cell_formula_units_Z   4
loop_
 _symmetry_equiv_pos_site_id
 _symmetry_equiv_pos_as_xyz
  1  'x, y, z'
loop_
 _atom_site_type_symbol
 _atom_site_label
 _atom_site_symmetry_multiplicity
 _atom_site_fract_x
 _atom_site_fract_y
 _atom_site_fract_z
 _atom_site_occupancy
  Cr  Cr0  1  0.38600000  0.38600000  0.38600000  1.0
  Cr  Cr1  1  0.11400000  0.61400000  0.88600000  1.0
  Cr  Cr2  1  0.61400000  0.88600000  0.11400000  1.0
  Cr  Cr3  1  0.88600000  0.11400000  0.61400000  1.0
  Si  Si4  1  0.09600000  0.09600000  0.09600000  1.0
  Si  Si5  1  0.40400000  0.90400000  0.59600000  1.0
  Si  Si6  1  0.90400000  0.59600000  0.40400000  1.0
  Si  Si7  1  0.59600000  0.40400000  0.90400000  1.0
