# generated using pymatgen
data_Cs2KYF6
_symmetry_space_group_name_H-M   'P 1'
_cell_length_a   9.44500000
_cell_length_b   9.44500000
_cell_length_c   9.44500000
_cell_angle_alpha   90.00000000
_cell_angle_beta   90.00000000
_cell_angle_gamma   90.00000000
_symmetry_Int_Tables_number   1
_chemical_formula_structural   Cs2KYF6
_chemical_formula_sum   'Cs8 K4 Y4 F24'
_cell_volume   842.56979613
_cell_formula_units_Z   4
loop_
 _symmetry_equiv_pos_site_id
 _symmetry_equiv_pos_as_xyz
  1  'x, y, z'
loop_
 _atom_site_type_symbol
 _atom_site_label
 _atom_site_symmetry_multiplicity
 _atom_site_fract_x
 _atom_site_fract_y
 _atom_site_fract_z
 _atom_site_occupancy
  Cs  Cs0  1  0.25000000  0.25000000  0.25000000  1.0
  Cs  Cs1  1  0.75000000  0.75000000  0.75000000  1.0
  Cs  Cs2  1  0.75000000  0.75000000  0.25000000  1.0
  Cs  Cs3  1  0.75000000  0.25000000  0.75000000  1.0
  Cs  Cs4  1  0.75000000  0.25000000  0.25000000  1.0
  Cs  Cs5  1  0.25000000  0.75000000  0.75000000  1.0
  Cs  Cs6  1  0.25000000  0.75000000  0.25000000  1.0
  Cs  Cs7  1  0.25000000  0.25000000  0.75000000  1.0
  K  K8  1  0.50000000  0.50000000  0.50000000  1.0
  K  K9  1  0.50000000  0.00000000  0.00000000  1.0
  K  K10  1  0.00000000  0.50000000  0.00000000  1.0
  K  K11  1  0.00000000  0.00000000  0.50000000  1.0
  Y  Y12  1  0.00000000  0.00000000  0.00000000  1.0
  Y  Y13  1  0.00000000  0.50000000  0.50000000  1.0
  Y  Y14  1  0.50000000  0.00000000  0.50000000  1.0
  Y  Y15  1  0.50000000  0.50000000  0.00000000  1.0
  F  F16  1  0.21600000  0.00000000  0.00000000  1.0
  F  F17  1  0.78400000  0.00000000  0.00000000  1.0
  F  F18  1  0.00000000  0.78400000  0.00000000  1.0
  F  F19  1  0.00000000  0.00000000  0.78400000  1.0
  F  F20  1  0.00000000  0.00000000  0.21600000  1.0
  F  F21  1  0.00000000  0.21600000  0.00000000  1.0
  F  F22  1  0.21600000  0.50000000  0.50000000  1.0
  F  F23  1  0.78400000  0.50000000  0.50000000  1.0
  F  F24  1  0.00000000  0.28400000  0.50000000  1.0
  F  F25  1  0.00000000  0.50000000  0.28400000  1.0
  F  F26  1  0.00000000  0.50000000  0.71600000  1.0
  F  F27  1  0.00000000  0.71600000  0.50000000  1.0
  F  F28  1  0.71600000  0.00000000  0.50000000  1.0
  F  F29  1  0.28400000  0.00000000  0.50000000  1.0
  F  F30  1  0.50000000  0.78400000  0.50000000  1.0
  F  F31  1  0.50000000  0.00000000  0.28400000  1.0
  F  F32  1  0.50000000  0.00000000  0.71600000  1.0
  F  F33  1  0.50000000  0.21600000  0.50000000  1.0
  F  F34  1  0.71600000  0.50000000  0.00000000  1.0
  F  F35  1  0.28400000  0.50000000  0.00000000  1.0
  F  F36  1  0.50000000  0.28400000  0.00000000  1.0
  F  F37  1  0.50000000  0.50000000  0.78400000  1.0
  F  F38  1  0.50000000  0.50000000  0.21600000  1.0
  F  F39  1  0.50000000  0.71600000  0.00000000  1.0
