# generated using pymatgen
data_Ho3Cu3Sb4
_symmetry_space_group_name_H-M   'P 1'
_cell_length_a   9.48200000
_cell_length_b   9.48200000
_cell_length_c   9.48200000
_cell_angle_alpha   90.00000000
_cell_angle_beta   90.00000000
_cell_angle_gamma   90.00000000
_symmetry_Int_Tables_number   1
_chemical_formula_structural   Ho3Cu3Sb4
_chemical_formula_sum   'Ho12 Cu12 Sb16'
_cell_volume   852.51072817
_cell_formula_units_Z   4
loop_
 _symmetry_equiv_pos_site_id
 _symmetry_equiv_pos_as_xyz
  1  'x, y, z'
loop_
 _atom_site_type_symbol
 _atom_site_label
 _atom_site_symmetry_multiplicity
 _atom_site_fract_x
 _atom_site_fract_y
 _atom_site_fract_z
 _atom_site_occupancy
  Ho  Ho0  1  0.37500000  0.00000000  0.25000000  1.0
  Ho  Ho1  1  0.12500000  0.00000000  0.75000000  1.0
  Ho  Ho2  1  0.87500000  0.50000000  0.75000000  1.0
  Ho  Ho3  1  0.62500000  0.50000000  0.25000000  1.0
  Ho  Ho4  1  0.50000000  0.25000000  0.62500000  1.0
  Ho  Ho5  1  0.25000000  0.62500000  0.50000000  1.0
  Ho  Ho6  1  0.00000000  0.25000000  0.37500000  1.0
  Ho  Ho7  1  0.75000000  0.87500000  0.50000000  1.0
  Ho  Ho8  1  0.25000000  0.37500000  0.00000000  1.0
  Ho  Ho9  1  0.75000000  0.12500000  0.00000000  1.0
  Ho  Ho10  1  0.00000000  0.75000000  0.12500000  1.0
  Ho  Ho11  1  0.50000000  0.75000000  0.87500000  1.0
  Cu  Cu12  1  0.87500000  0.00000000  0.25000000  1.0
  Cu  Cu13  1  0.62500000  0.00000000  0.75000000  1.0
  Cu  Cu14  1  0.37500000  0.50000000  0.75000000  1.0
  Cu  Cu15  1  0.12500000  0.50000000  0.25000000  1.0
  Cu  Cu16  1  0.50000000  0.25000000  0.12500000  1.0
  Cu  Cu17  1  0.25000000  0.12500000  0.50000000  1.0
  Cu  Cu18  1  0.00000000  0.25000000  0.87500000  1.0
  Cu  Cu19  1  0.75000000  0.37500000  0.50000000  1.0
  Cu  Cu20  1  0.25000000  0.87500000  0.00000000  1.0
  Cu  Cu21  1  0.75000000  0.62500000  0.00000000  1.0
  Cu  Cu22  1  0.00000000  0.75000000  0.62500000  1.0
  Cu  Cu23  1  0.50000000  0.75000000  0.37500000  1.0
  Sb  Sb24  1  0.08800000  0.08800000  0.08800000  1.0
  Sb  Sb25  1  0.41200000  0.08800000  0.91200000  1.0
  Sb  Sb26  1  0.16200000  0.33800000  0.66200000  1.0
  Sb  Sb27  1  0.91200000  0.41200000  0.08800000  1.0
  Sb  Sb28  1  0.66200000  0.16200000  0.33800000  1.0
  Sb  Sb29  1  0.33800000  0.66200000  0.16200000  1.0
  Sb  Sb30  1  0.33800000  0.33800000  0.33800000  1.0
  Sb  Sb31  1  0.08800000  0.91200000  0.41200000  1.0
  Sb  Sb32  1  0.58800000  0.58800000  0.58800000  1.0
  Sb  Sb33  1  0.91200000  0.58800000  0.41200000  1.0
  Sb  Sb34  1  0.66200000  0.83800000  0.16200000  1.0
  Sb  Sb35  1  0.41200000  0.91200000  0.58800000  1.0
  Sb  Sb36  1  0.16200000  0.66200000  0.83800000  1.0
  Sb  Sb37  1  0.83800000  0.16200000  0.66200000  1.0
  Sb  Sb38  1  0.83800000  0.83800000  0.83800000  1.0
  Sb  Sb39  1  0.58800000  0.41200000  0.91200000  1.0
