# generated using pymatgen
data_UCu4Au
_symmetry_space_group_name_H-M   'P 1'
_cell_length_a   7.42700000
_cell_length_b   7.42700000
_cell_length_c   7.42700000
_cell_angle_alpha   90.00000000
_cell_angle_beta   90.00000000
_cell_angle_gamma   90.00000000
_symmetry_Int_Tables_number   1
_chemical_formula_structural   UCu4Au
_chemical_formula_sum   'U4 Cu16 Au4'
_cell_volume   409.67576348
_cell_formula_units_Z   4
loop_
 _symmetry_equiv_pos_site_id
 _symmetry_equiv_pos_as_xyz
  1  'x, y, z'
loop_
 _atom_site_type_symbol
 _atom_site_label
 _atom_site_symmetry_multiplicity
 _atom_site_fract_x
 _atom_site_fract_y
 _atom_site_fract_z
 _atom_site_occupancy
  U  U0  1  0.25000000  0.25000000  0.25000000  1.0
  U  U1  1  0.75000000  0.75000000  0.25000000  1.0
  U  U2  1  0.75000000  0.25000000  0.75000000  1.0
  U  U3  1  0.25000000  0.75000000  0.75000000  1.0
  Cu  Cu4  1  0.62500000  0.62500000  0.62500000  1.0
  Cu  Cu5  1  0.37500000  0.37500000  0.62500000  1.0
  Cu  Cu6  1  0.37500000  0.62500000  0.37500000  1.0
  Cu  Cu7  1  0.62500000  0.37500000  0.37500000  1.0
  Cu  Cu8  1  0.62500000  0.12500000  0.12500000  1.0
  Cu  Cu9  1  0.37500000  0.87500000  0.12500000  1.0
  Cu  Cu10  1  0.37500000  0.12500000  0.87500000  1.0
  Cu  Cu11  1  0.62500000  0.87500000  0.87500000  1.0
  Cu  Cu12  1  0.12500000  0.62500000  0.12500000  1.0
  Cu  Cu13  1  0.87500000  0.37500000  0.12500000  1.0
  Cu  Cu14  1  0.87500000  0.62500000  0.87500000  1.0
  Cu  Cu15  1  0.12500000  0.37500000  0.87500000  1.0
  Cu  Cu16  1  0.12500000  0.12500000  0.62500000  1.0
  Cu  Cu17  1  0.87500000  0.87500000  0.62500000  1.0
  Cu  Cu18  1  0.87500000  0.12500000  0.37500000  1.0
  Cu  Cu19  1  0.12500000  0.87500000  0.37500000  1.0
  Au  Au20  1  0.00000000  0.00000000  0.00000000  1.0
  Au  Au21  1  0.00000000  0.50000000  0.50000000  1.0
  Au  Au22  1  0.50000000  0.00000000  0.50000000  1.0
  Au  Au23  1  0.50000000  0.50000000  0.00000000  1.0
