# generated using pymatgen
data_Dy3Se4
_symmetry_space_group_name_H-M   'P 1'
_cell_length_a   8.67000000
_cell_length_b   8.67000000
_cell_length_c   8.67000000
_cell_angle_alpha   90.00000000
_cell_angle_beta   90.00000000
_cell_angle_gamma   90.00000000
_symmetry_Int_Tables_number   1
_chemical_formula_structural   Dy3Se4
_chemical_formula_sum   'Dy12 Se16'
_cell_volume   651.71436300
_cell_formula_units_Z   4
loop_
 _symmetry_equiv_pos_site_id
 _symmetry_equiv_pos_as_xyz
  1  'x, y, z'
loop_
 _atom_site_type_symbol
 _atom_site_label
 _atom_site_symmetry_multiplicity
 _atom_site_fract_x
 _atom_site_fract_y
 _atom_site_fract_z
 _atom_site_occupancy
  Dy  Dy0  1  0.37500000  0.00000000  0.25000000  1.0
  Dy  Dy1  1  0.12500000  0.00000000  0.75000000  1.0
  Dy  Dy2  1  0.87500000  0.50000000  0.75000000  1.0
  Dy  Dy3  1  0.62500000  0.50000000  0.25000000  1.0
  Dy  Dy4  1  0.50000000  0.25000000  0.62500000  1.0
  Dy  Dy5  1  0.25000000  0.62500000  0.50000000  1.0
  Dy  Dy6  1  0.00000000  0.25000000  0.37500000  1.0
  Dy  Dy7  1  0.75000000  0.87500000  0.50000000  1.0
  Dy  Dy8  1  0.25000000  0.37500000  0.00000000  1.0
  Dy  Dy9  1  0.75000000  0.12500000  0.00000000  1.0
  Dy  Dy10  1  0.00000000  0.75000000  0.12500000  1.0
  Dy  Dy11  1  0.50000000  0.75000000  0.87500000  1.0
  Se  Se12  1  0.08333000  0.08333000  0.08333000  1.0
  Se  Se13  1  0.41667000  0.08333000  0.91667000  1.0
  Se  Se14  1  0.16667000  0.33333000  0.66667000  1.0
  Se  Se15  1  0.91667000  0.41667000  0.08333000  1.0
  Se  Se16  1  0.66667000  0.16667000  0.33333000  1.0
  Se  Se17  1  0.33333000  0.66667000  0.16667000  1.0
  Se  Se18  1  0.33333000  0.33333000  0.33333000  1.0
  Se  Se19  1  0.08333000  0.91667000  0.41667000  1.0
  Se  Se20  1  0.58333000  0.58333000  0.58333000  1.0
  Se  Se21  1  0.91667000  0.58333000  0.41667000  1.0
  Se  Se22  1  0.66667000  0.83333000  0.16667000  1.0
  Se  Se23  1  0.41667000  0.91667000  0.58333000  1.0
  Se  Se24  1  0.16667000  0.66667000  0.83333000  1.0
  Se  Se25  1  0.83333000  0.16667000  0.66667000  1.0
  Se  Se26  1  0.83333000  0.83333000  0.83333000  1.0
  Se  Se27  1  0.58333000  0.41667000  0.91667000  1.0
