# generated using pymatgen
data_Dy2C3
_symmetry_space_group_name_H-M   'P 1'
_cell_length_a   8.18900000
_cell_length_b   8.18900000
_cell_length_c   8.18900000
_cell_angle_alpha   90.00000000
_cell_angle_beta   90.00000000
_cell_angle_gamma   90.00000000
_symmetry_Int_Tables_number   1
_chemical_formula_structural   Dy2C3
_chemical_formula_sum   'Dy16 C24'
_cell_volume   549.15205527
_cell_formula_units_Z   8
loop_
 _symmetry_equiv_pos_site_id
 _symmetry_equiv_pos_as_xyz
  1  'x, y, z'
loop_
 _atom_site_type_symbol
 _atom_site_label
 _atom_site_symmetry_multiplicity
 _atom_site_fract_x
 _atom_site_fract_y
 _atom_site_fract_z
 _atom_site_occupancy
  Dy  Dy0  1  0.05140000  0.05140000  0.05140000  1.0
  Dy  Dy1  1  0.44860000  0.05140000  0.94860000  1.0
  Dy  Dy2  1  0.19860000  0.30140000  0.69860000  1.0
  Dy  Dy3  1  0.94860000  0.44860000  0.05140000  1.0
  Dy  Dy4  1  0.69860000  0.19860000  0.30140000  1.0
  Dy  Dy5  1  0.30140000  0.69860000  0.19860000  1.0
  Dy  Dy6  1  0.30140000  0.30140000  0.30140000  1.0
  Dy  Dy7  1  0.05140000  0.94860000  0.44860000  1.0
  Dy  Dy8  1  0.55140000  0.55140000  0.55140000  1.0
  Dy  Dy9  1  0.94860000  0.55140000  0.44860000  1.0
  Dy  Dy10  1  0.69860000  0.80140000  0.19860000  1.0
  Dy  Dy11  1  0.44860000  0.94860000  0.55140000  1.0
  Dy  Dy12  1  0.19860000  0.69860000  0.80140000  1.0
  Dy  Dy13  1  0.80140000  0.19860000  0.69860000  1.0
  Dy  Dy14  1  0.80140000  0.80140000  0.80140000  1.0
  Dy  Dy15  1  0.55140000  0.44860000  0.94860000  1.0
  C  C16  1  0.29940000  0.00000000  0.25000000  1.0
  C  C17  1  0.20060000  0.00000000  0.75000000  1.0
  C  C18  1  0.95060000  0.50000000  0.75000000  1.0
  C  C19  1  0.70060000  0.50000000  0.25000000  1.0
  C  C20  1  0.45060000  0.00000000  0.25000000  1.0
  C  C21  1  0.50000000  0.25000000  0.70060000  1.0
  C  C22  1  0.25000000  0.54940000  0.50000000  1.0
  C  C23  1  0.00000000  0.25000000  0.29940000  1.0
  C  C24  1  0.75000000  0.95060000  0.50000000  1.0
  C  C25  1  0.25000000  0.29940000  0.00000000  1.0
  C  C26  1  0.00000000  0.25000000  0.45060000  1.0
  C  C27  1  0.75000000  0.20060000  0.00000000  1.0
  C  C28  1  0.50000000  0.25000000  0.54940000  1.0
  C  C29  1  0.54940000  0.50000000  0.25000000  1.0
  C  C30  1  0.25000000  0.45060000  0.00000000  1.0
  C  C31  1  0.00000000  0.75000000  0.20060000  1.0
  C  C32  1  0.50000000  0.75000000  0.95060000  1.0
  C  C33  1  0.25000000  0.70060000  0.50000000  1.0
  C  C34  1  0.79940000  0.50000000  0.75000000  1.0
  C  C35  1  0.75000000  0.04940000  0.00000000  1.0
  C  C36  1  0.50000000  0.75000000  0.79940000  1.0
  C  C37  1  0.75000000  0.79940000  0.50000000  1.0
  C  C38  1  0.00000000  0.75000000  0.04940000  1.0
  C  C39  1  0.04940000  0.00000000  0.75000000  1.0
