# generated using pymatgen
data_Er2C3
_symmetry_space_group_name_H-M   'P 1'
_cell_length_a   8.13240000
_cell_length_b   8.13240000
_cell_length_c   8.13240000
_cell_angle_alpha   90.00000000
_cell_angle_beta   90.00000000
_cell_angle_gamma   90.00000000
_symmetry_Int_Tables_number   1
_chemical_formula_structural   Er2C3
_chemical_formula_sum   'Er16 C24'
_cell_volume   537.84383518
_cell_formula_units_Z   8
loop_
 _symmetry_equiv_pos_site_id
 _symmetry_equiv_pos_as_xyz
  1  'x, y, z'
loop_
 _atom_site_type_symbol
 _atom_site_label
 _atom_site_symmetry_multiplicity
 _atom_site_fract_x
 _atom_site_fract_y
 _atom_site_fract_z
 _atom_site_occupancy
  Er  Er0  1  0.04990000  0.04990000  0.04990000  1.0
  Er  Er1  1  0.45010000  0.04990000  0.95010000  1.0
  Er  Er2  1  0.20010000  0.29990000  0.70010000  1.0
  Er  Er3  1  0.95010000  0.45010000  0.04990000  1.0
  Er  Er4  1  0.70010000  0.20010000  0.29990000  1.0
  Er  Er5  1  0.29990000  0.70010000  0.20010000  1.0
  Er  Er6  1  0.29990000  0.29990000  0.29990000  1.0
  Er  Er7  1  0.04990000  0.95010000  0.45010000  1.0
  Er  Er8  1  0.54990000  0.54990000  0.54990000  1.0
  Er  Er9  1  0.95010000  0.54990000  0.45010000  1.0
  Er  Er10  1  0.70010000  0.79990000  0.20010000  1.0
  Er  Er11  1  0.45010000  0.95010000  0.54990000  1.0
  Er  Er12  1  0.20010000  0.70010000  0.79990000  1.0
  Er  Er13  1  0.79990000  0.20010000  0.70010000  1.0
  Er  Er14  1  0.79990000  0.79990000  0.79990000  1.0
  Er  Er15  1  0.54990000  0.45010000  0.95010000  1.0
  C  C16  1  0.28740000  0.00000000  0.25000000  1.0
  C  C17  1  0.21260000  0.00000000  0.75000000  1.0
  C  C18  1  0.96260000  0.50000000  0.75000000  1.0
  C  C19  1  0.71260000  0.50000000  0.25000000  1.0
  C  C20  1  0.46260000  0.00000000  0.25000000  1.0
  C  C21  1  0.50000000  0.25000000  0.71260000  1.0
  C  C22  1  0.25000000  0.53740000  0.50000000  1.0
  C  C23  1  0.00000000  0.25000000  0.28740000  1.0
  C  C24  1  0.75000000  0.96260000  0.50000000  1.0
  C  C25  1  0.25000000  0.28740000  0.00000000  1.0
  C  C26  1  0.00000000  0.25000000  0.46260000  1.0
  C  C27  1  0.75000000  0.21260000  0.00000000  1.0
  C  C28  1  0.50000000  0.25000000  0.53740000  1.0
  C  C29  1  0.53740000  0.50000000  0.25000000  1.0
  C  C30  1  0.25000000  0.46260000  0.00000000  1.0
  C  C31  1  0.00000000  0.75000000  0.21260000  1.0
  C  C32  1  0.50000000  0.75000000  0.96260000  1.0
  C  C33  1  0.25000000  0.71260000  0.50000000  1.0
  C  C34  1  0.78740000  0.50000000  0.75000000  1.0
  C  C35  1  0.75000000  0.03740000  0.00000000  1.0
  C  C36  1  0.50000000  0.75000000  0.78740000  1.0
  C  C37  1  0.75000000  0.78740000  0.50000000  1.0
  C  C38  1  0.00000000  0.75000000  0.03740000  1.0
  C  C39  1  0.03740000  0.00000000  0.75000000  1.0
