# generated using pymatgen
data_Er4Ge6Os7
_symmetry_space_group_name_H-M   'P 1'
_cell_length_a   8.31400000
_cell_length_b   8.31400000
_cell_length_c   8.31400000
_cell_angle_alpha   90.00000000
_cell_angle_beta   90.00000000
_cell_angle_gamma   90.00000000
_symmetry_Int_Tables_number   1
_chemical_formula_structural   Er4Ge6Os7
_chemical_formula_sum   'Er8 Ge12 Os14'
_cell_volume   574.68526314
_cell_formula_units_Z   2
loop_
 _symmetry_equiv_pos_site_id
 _symmetry_equiv_pos_as_xyz
  1  'x, y, z'
loop_
 _atom_site_type_symbol
 _atom_site_label
 _atom_site_symmetry_multiplicity
 _atom_site_fract_x
 _atom_site_fract_y
 _atom_site_fract_z
 _atom_site_occupancy
  Er  Er0  1  0.25000000  0.25000000  0.25000000  1.0
  Er  Er1  1  0.75000000  0.75000000  0.75000000  1.0
  Er  Er2  1  0.75000000  0.75000000  0.25000000  1.0
  Er  Er3  1  0.75000000  0.25000000  0.75000000  1.0
  Er  Er4  1  0.75000000  0.25000000  0.25000000  1.0
  Er  Er5  1  0.25000000  0.75000000  0.75000000  1.0
  Er  Er6  1  0.25000000  0.75000000  0.25000000  1.0
  Er  Er7  1  0.25000000  0.25000000  0.75000000  1.0
  Ge  Ge8  1  0.29000000  0.00000000  0.00000000  1.0
  Ge  Ge9  1  0.71000000  0.00000000  0.00000000  1.0
  Ge  Ge10  1  0.00000000  0.71000000  0.00000000  1.0
  Ge  Ge11  1  0.00000000  0.00000000  0.71000000  1.0
  Ge  Ge12  1  0.00000000  0.00000000  0.29000000  1.0
  Ge  Ge13  1  0.00000000  0.29000000  0.00000000  1.0
  Ge  Ge14  1  0.79000000  0.50000000  0.50000000  1.0
  Ge  Ge15  1  0.21000000  0.50000000  0.50000000  1.0
  Ge  Ge16  1  0.50000000  0.21000000  0.50000000  1.0
  Ge  Ge17  1  0.50000000  0.50000000  0.21000000  1.0
  Ge  Ge18  1  0.50000000  0.50000000  0.79000000  1.0
  Ge  Ge19  1  0.50000000  0.79000000  0.50000000  1.0
  Os  Os20  1  0.25000000  0.00000000  0.50000000  1.0
  Os  Os21  1  0.75000000  0.00000000  0.50000000  1.0
  Os  Os22  1  0.75000000  0.50000000  0.00000000  1.0
  Os  Os23  1  0.00000000  0.75000000  0.50000000  1.0
  Os  Os24  1  0.00000000  0.50000000  0.75000000  1.0
  Os  Os25  1  0.00000000  0.50000000  0.25000000  1.0
  Os  Os26  1  0.00000000  0.25000000  0.50000000  1.0
  Os  Os27  1  0.50000000  0.75000000  0.00000000  1.0
  Os  Os28  1  0.50000000  0.00000000  0.75000000  1.0
  Os  Os29  1  0.50000000  0.00000000  0.25000000  1.0
  Os  Os30  1  0.50000000  0.25000000  0.00000000  1.0
  Os  Os31  1  0.25000000  0.50000000  0.00000000  1.0
  Os  Os32  1  0.00000000  0.00000000  0.00000000  1.0
  Os  Os33  1  0.50000000  0.50000000  0.50000000  1.0
