# generated using pymatgen
data_Eu2H6Ir
_symmetry_space_group_name_H-M   'P 1'
_cell_length_a   7.58000000
_cell_length_b   7.58000000
_cell_length_c   7.58000000
_cell_angle_alpha   90.00000000
_cell_angle_beta   90.00000000
_cell_angle_gamma   90.00000000
_symmetry_Int_Tables_number   1
_chemical_formula_structural   Eu2H6Ir
_chemical_formula_sum   'Eu8 H24 Ir4'
_cell_volume   435.51951200
_cell_formula_units_Z   4
loop_
 _symmetry_equiv_pos_site_id
 _symmetry_equiv_pos_as_xyz
  1  'x, y, z'
loop_
 _atom_site_type_symbol
 _atom_site_label
 _atom_site_symmetry_multiplicity
 _atom_site_fract_x
 _atom_site_fract_y
 _atom_site_fract_z
 _atom_site_occupancy
  Eu  Eu0  1  0.25000000  0.25000000  0.25000000  1.0
  Eu  Eu1  1  0.75000000  0.75000000  0.75000000  1.0
  Eu  Eu2  1  0.75000000  0.75000000  0.25000000  1.0
  Eu  Eu3  1  0.75000000  0.25000000  0.75000000  1.0
  Eu  Eu4  1  0.75000000  0.25000000  0.25000000  1.0
  Eu  Eu5  1  0.25000000  0.75000000  0.75000000  1.0
  Eu  Eu6  1  0.25000000  0.75000000  0.25000000  1.0
  Eu  Eu7  1  0.25000000  0.25000000  0.75000000  1.0
  H  H8  1  0.25000000  0.00000000  0.00000000  1.0
  H  H9  1  0.75000000  0.00000000  0.00000000  1.0
  H  H10  1  0.00000000  0.75000000  0.00000000  1.0
  H  H11  1  0.00000000  0.00000000  0.75000000  1.0
  H  H12  1  0.00000000  0.00000000  0.25000000  1.0
  H  H13  1  0.00000000  0.25000000  0.00000000  1.0
  H  H14  1  0.25000000  0.50000000  0.50000000  1.0
  H  H15  1  0.75000000  0.50000000  0.50000000  1.0
  H  H16  1  0.00000000  0.25000000  0.50000000  1.0
  H  H17  1  0.00000000  0.50000000  0.25000000  1.0
  H  H18  1  0.00000000  0.50000000  0.75000000  1.0
  H  H19  1  0.00000000  0.75000000  0.50000000  1.0
  H  H20  1  0.75000000  0.00000000  0.50000000  1.0
  H  H21  1  0.25000000  0.00000000  0.50000000  1.0
  H  H22  1  0.50000000  0.75000000  0.50000000  1.0
  H  H23  1  0.50000000  0.00000000  0.25000000  1.0
  H  H24  1  0.50000000  0.00000000  0.75000000  1.0
  H  H25  1  0.50000000  0.25000000  0.50000000  1.0
  H  H26  1  0.75000000  0.50000000  0.00000000  1.0
  H  H27  1  0.25000000  0.50000000  0.00000000  1.0
  H  H28  1  0.50000000  0.25000000  0.00000000  1.0
  H  H29  1  0.50000000  0.50000000  0.75000000  1.0
  H  H30  1  0.50000000  0.50000000  0.25000000  1.0
  H  H31  1  0.50000000  0.75000000  0.00000000  1.0
  Ir  Ir32  1  0.00000000  0.00000000  0.00000000  1.0
  Ir  Ir33  1  0.00000000  0.50000000  0.50000000  1.0
  Ir  Ir34  1  0.50000000  0.00000000  0.50000000  1.0
  Ir  Ir35  1  0.50000000  0.50000000  0.00000000  1.0
