# generated using pymatgen
data_YbEu2TaO6
_symmetry_space_group_name_H-M   'P 1'
_cell_length_a   8.21400000
_cell_length_b   8.21400000
_cell_length_c   8.21400000
_cell_angle_alpha   90.00000000
_cell_angle_beta   90.00000000
_cell_angle_gamma   90.00000000
_symmetry_Int_Tables_number   1
_chemical_formula_structural   YbEu2TaO6
_chemical_formula_sum   'Yb4 Eu8 Ta4 O24'
_cell_volume   554.19690434
_cell_formula_units_Z   4
loop_
 _symmetry_equiv_pos_site_id
 _symmetry_equiv_pos_as_xyz
  1  'x, y, z'
loop_
 _atom_site_type_symbol
 _atom_site_label
 _atom_site_symmetry_multiplicity
 _atom_site_fract_x
 _atom_site_fract_y
 _atom_site_fract_z
 _atom_site_occupancy
  Yb  Yb0  1  0.50000000  0.50000000  0.50000000  1.0
  Yb  Yb1  1  0.50000000  0.00000000  0.00000000  1.0
  Yb  Yb2  1  0.00000000  0.50000000  0.00000000  1.0
  Yb  Yb3  1  0.00000000  0.00000000  0.50000000  1.0
  Eu  Eu4  1  0.25000000  0.25000000  0.25000000  1.0
  Eu  Eu5  1  0.75000000  0.75000000  0.75000000  1.0
  Eu  Eu6  1  0.75000000  0.75000000  0.25000000  1.0
  Eu  Eu7  1  0.75000000  0.25000000  0.75000000  1.0
  Eu  Eu8  1  0.75000000  0.25000000  0.25000000  1.0
  Eu  Eu9  1  0.25000000  0.75000000  0.75000000  1.0
  Eu  Eu10  1  0.25000000  0.75000000  0.25000000  1.0
  Eu  Eu11  1  0.25000000  0.25000000  0.75000000  1.0
  Ta  Ta12  1  0.00000000  0.00000000  0.00000000  1.0
  Ta  Ta13  1  0.00000000  0.50000000  0.50000000  1.0
  Ta  Ta14  1  0.50000000  0.00000000  0.50000000  1.0
  Ta  Ta15  1  0.50000000  0.50000000  0.00000000  1.0
  O  O16  1  0.21600000  0.00000000  0.00000000  1.0
  O  O17  1  0.78400000  0.00000000  0.00000000  1.0
  O  O18  1  0.00000000  0.78400000  0.00000000  1.0
  O  O19  1  0.00000000  0.00000000  0.78400000  1.0
  O  O20  1  0.00000000  0.00000000  0.21600000  1.0
  O  O21  1  0.00000000  0.21600000  0.00000000  1.0
  O  O22  1  0.21600000  0.50000000  0.50000000  1.0
  O  O23  1  0.78400000  0.50000000  0.50000000  1.0
  O  O24  1  0.00000000  0.28400000  0.50000000  1.0
  O  O25  1  0.00000000  0.50000000  0.28400000  1.0
  O  O26  1  0.00000000  0.50000000  0.71600000  1.0
  O  O27  1  0.00000000  0.71600000  0.50000000  1.0
  O  O28  1  0.71600000  0.00000000  0.50000000  1.0
  O  O29  1  0.28400000  0.00000000  0.50000000  1.0
  O  O30  1  0.50000000  0.78400000  0.50000000  1.0
  O  O31  1  0.50000000  0.00000000  0.28400000  1.0
  O  O32  1  0.50000000  0.00000000  0.71600000  1.0
  O  O33  1  0.50000000  0.21600000  0.50000000  1.0
  O  O34  1  0.71600000  0.50000000  0.00000000  1.0
  O  O35  1  0.28400000  0.50000000  0.00000000  1.0
  O  O36  1  0.50000000  0.28400000  0.00000000  1.0
  O  O37  1  0.50000000  0.50000000  0.78400000  1.0
  O  O38  1  0.50000000  0.50000000  0.21600000  1.0
  O  O39  1  0.50000000  0.71600000  0.00000000  1.0
