# generated using pymatgen
data_Eu4Bi3
_symmetry_space_group_name_H-M   'P 1'
_cell_length_a   9.94400000
_cell_length_b   9.94400000
_cell_length_c   9.94400000
_cell_angle_alpha   90.00000000
_cell_angle_beta   90.00000000
_cell_angle_gamma   90.00000000
_symmetry_Int_Tables_number   1
_chemical_formula_structural   Eu4Bi3
_chemical_formula_sum   'Eu16 Bi12'
_cell_volume   983.29390438
_cell_formula_units_Z   4
loop_
 _symmetry_equiv_pos_site_id
 _symmetry_equiv_pos_as_xyz
  1  'x, y, z'
loop_
 _atom_site_type_symbol
 _atom_site_label
 _atom_site_symmetry_multiplicity
 _atom_site_fract_x
 _atom_site_fract_y
 _atom_site_fract_z
 _atom_site_occupancy
  Eu  Eu0  1  0.08333000  0.08333000  0.08333000  1.0
  Eu  Eu1  1  0.41667000  0.08333000  0.91667000  1.0
  Eu  Eu2  1  0.16667000  0.33333000  0.66667000  1.0
  Eu  Eu3  1  0.91667000  0.41667000  0.08333000  1.0
  Eu  Eu4  1  0.66667000  0.16667000  0.33333000  1.0
  Eu  Eu5  1  0.33333000  0.66667000  0.16667000  1.0
  Eu  Eu6  1  0.33333000  0.33333000  0.33333000  1.0
  Eu  Eu7  1  0.08333000  0.91667000  0.41667000  1.0
  Eu  Eu8  1  0.58333000  0.58333000  0.58333000  1.0
  Eu  Eu9  1  0.91667000  0.58333000  0.41667000  1.0
  Eu  Eu10  1  0.66667000  0.83333000  0.16667000  1.0
  Eu  Eu11  1  0.41667000  0.91667000  0.58333000  1.0
  Eu  Eu12  1  0.16667000  0.66667000  0.83333000  1.0
  Eu  Eu13  1  0.83333000  0.16667000  0.66667000  1.0
  Eu  Eu14  1  0.83333000  0.83333000  0.83333000  1.0
  Eu  Eu15  1  0.58333000  0.41667000  0.91667000  1.0
  Bi  Bi16  1  0.37500000  0.00000000  0.25000000  1.0
  Bi  Bi17  1  0.12500000  0.00000000  0.75000000  1.0
  Bi  Bi18  1  0.87500000  0.50000000  0.75000000  1.0
  Bi  Bi19  1  0.62500000  0.50000000  0.25000000  1.0
  Bi  Bi20  1  0.50000000  0.25000000  0.62500000  1.0
  Bi  Bi21  1  0.25000000  0.62500000  0.50000000  1.0
  Bi  Bi22  1  0.00000000  0.25000000  0.37500000  1.0
  Bi  Bi23  1  0.75000000  0.87500000  0.50000000  1.0
  Bi  Bi24  1  0.25000000  0.37500000  0.00000000  1.0
  Bi  Bi25  1  0.75000000  0.12500000  0.00000000  1.0
  Bi  Bi26  1  0.00000000  0.75000000  0.12500000  1.0
  Bi  Bi27  1  0.50000000  0.75000000  0.87500000  1.0
