# generated using pymatgen
data_EuGePt
_symmetry_space_group_name_H-M   'P 1'
_cell_length_a   6.55100000
_cell_length_b   6.55100000
_cell_length_c   6.55100000
_cell_angle_alpha   90.00000000
_cell_angle_beta   90.00000000
_cell_angle_gamma   90.00000000
_symmetry_Int_Tables_number   1
_chemical_formula_structural   EuGePt
_chemical_formula_sum   'Eu4 Ge4 Pt4'
_cell_volume   281.14010215
_cell_formula_units_Z   4
loop_
 _symmetry_equiv_pos_site_id
 _symmetry_equiv_pos_as_xyz
  1  'x, y, z'
loop_
 _atom_site_type_symbol
 _atom_site_label
 _atom_site_symmetry_multiplicity
 _atom_site_fract_x
 _atom_site_fract_y
 _atom_site_fract_z
 _atom_site_occupancy
  Eu  Eu0  1  0.36600000  0.36600000  0.36600000  1.0
  Eu  Eu1  1  0.13400000  0.63400000  0.86600000  1.0
  Eu  Eu2  1  0.63400000  0.86600000  0.13400000  1.0
  Eu  Eu3  1  0.86600000  0.13400000  0.63400000  1.0
  Ge  Ge4  1  0.66500000  0.66500000  0.66500000  1.0
  Ge  Ge5  1  0.83500000  0.33500000  0.16500000  1.0
  Ge  Ge6  1  0.33500000  0.16500000  0.83500000  1.0
  Ge  Ge7  1  0.16500000  0.83500000  0.33500000  1.0
  Pt  Pt8  1  0.08100000  0.08100000  0.08100000  1.0
  Pt  Pt9  1  0.41900000  0.91900000  0.58100000  1.0
  Pt  Pt10  1  0.91900000  0.58100000  0.41900000  1.0
  Pt  Pt11  1  0.58100000  0.41900000  0.91900000  1.0
