# generated using pymatgen
data_FeSbPt
_symmetry_space_group_name_H-M   'P 1'
_cell_length_a   6.43900000
_cell_length_b   6.43900000
_cell_length_c   6.43900000
_cell_angle_alpha   90.00000000
_cell_angle_beta   90.00000000
_cell_angle_gamma   90.00000000
_symmetry_Int_Tables_number   1
_chemical_formula_structural   FeSbPt
_chemical_formula_sum   'Fe4 Sb4 Pt4'
_cell_volume   266.96558252
_cell_formula_units_Z   4
loop_
 _symmetry_equiv_pos_site_id
 _symmetry_equiv_pos_as_xyz
  1  'x, y, z'
loop_
 _atom_site_type_symbol
 _atom_site_label
 _atom_site_symmetry_multiplicity
 _atom_site_fract_x
 _atom_site_fract_y
 _atom_site_fract_z
 _atom_site_occupancy
  Fe  Fe0  1  0.01877000  0.01877000  0.01877000  1.0
  Fe  Fe1  1  0.48123000  0.98123000  0.51877000  1.0
  Fe  Fe2  1  0.98123000  0.51877000  0.48123000  1.0
  Fe  Fe3  1  0.51877000  0.48123000  0.98123000  1.0
  Sb  Sb4  1  0.61882000  0.61882000  0.61882000  1.0
  Sb  Sb5  1  0.88118000  0.38118000  0.11882000  1.0
  Sb  Sb6  1  0.38118000  0.11882000  0.88118000  1.0
  Sb  Sb7  1  0.11882000  0.88118000  0.38118000  1.0
  Pt  Pt8  1  0.37326000  0.37326000  0.37326000  1.0
  Pt  Pt9  1  0.12674000  0.62674000  0.87326000  1.0
  Pt  Pt10  1  0.62674000  0.87326000  0.12674000  1.0
  Pt  Pt11  1  0.87326000  0.12674000  0.62674000  1.0
