# generated using pymatgen
data_Gd2C3
_symmetry_space_group_name_H-M   'P 1'
_cell_length_a   8.32210000
_cell_length_b   8.32210000
_cell_length_c   8.32210000
_cell_angle_alpha   90.00000000
_cell_angle_beta   90.00000000
_cell_angle_gamma   90.00000000
_symmetry_Int_Tables_number   1
_chemical_formula_structural   Gd2C3
_chemical_formula_sum   'Gd16 C24'
_cell_volume   576.36657920
_cell_formula_units_Z   8
loop_
 _symmetry_equiv_pos_site_id
 _symmetry_equiv_pos_as_xyz
  1  'x, y, z'
loop_
 _atom_site_type_symbol
 _atom_site_label
 _atom_site_symmetry_multiplicity
 _atom_site_fract_x
 _atom_site_fract_y
 _atom_site_fract_z
 _atom_site_occupancy
  Gd  Gd0  1  0.04920000  0.04920000  0.04920000  1.0
  Gd  Gd1  1  0.45080000  0.04920000  0.95080000  1.0
  Gd  Gd2  1  0.20080000  0.29920000  0.70080000  1.0
  Gd  Gd3  1  0.95080000  0.45080000  0.04920000  1.0
  Gd  Gd4  1  0.70080000  0.20080000  0.29920000  1.0
  Gd  Gd5  1  0.29920000  0.70080000  0.20080000  1.0
  Gd  Gd6  1  0.29920000  0.29920000  0.29920000  1.0
  Gd  Gd7  1  0.04920000  0.95080000  0.45080000  1.0
  Gd  Gd8  1  0.54920000  0.54920000  0.54920000  1.0
  Gd  Gd9  1  0.95080000  0.54920000  0.45080000  1.0
  Gd  Gd10  1  0.70080000  0.79920000  0.20080000  1.0
  Gd  Gd11  1  0.45080000  0.95080000  0.54920000  1.0
  Gd  Gd12  1  0.20080000  0.70080000  0.79920000  1.0
  Gd  Gd13  1  0.79920000  0.20080000  0.70080000  1.0
  Gd  Gd14  1  0.79920000  0.79920000  0.79920000  1.0
  Gd  Gd15  1  0.54920000  0.45080000  0.95080000  1.0
  C  C16  1  0.28960000  0.00000000  0.25000000  1.0
  C  C17  1  0.21040000  0.00000000  0.75000000  1.0
  C  C18  1  0.96040000  0.50000000  0.75000000  1.0
  C  C19  1  0.71040000  0.50000000  0.25000000  1.0
  C  C20  1  0.46040000  0.00000000  0.25000000  1.0
  C  C21  1  0.50000000  0.25000000  0.71040000  1.0
  C  C22  1  0.25000000  0.53960000  0.50000000  1.0
  C  C23  1  0.00000000  0.25000000  0.28960000  1.0
  C  C24  1  0.75000000  0.96040000  0.50000000  1.0
  C  C25  1  0.25000000  0.28960000  0.00000000  1.0
  C  C26  1  0.00000000  0.25000000  0.46040000  1.0
  C  C27  1  0.75000000  0.21040000  0.00000000  1.0
  C  C28  1  0.50000000  0.25000000  0.53960000  1.0
  C  C29  1  0.53960000  0.50000000  0.25000000  1.0
  C  C30  1  0.25000000  0.46040000  0.00000000  1.0
  C  C31  1  0.00000000  0.75000000  0.21040000  1.0
  C  C32  1  0.50000000  0.75000000  0.96040000  1.0
  C  C33  1  0.25000000  0.71040000  0.50000000  1.0
  C  C34  1  0.78960000  0.50000000  0.75000000  1.0
  C  C35  1  0.75000000  0.03960000  0.00000000  1.0
  C  C36  1  0.50000000  0.75000000  0.78960000  1.0
  C  C37  1  0.75000000  0.78960000  0.50000000  1.0
  C  C38  1  0.00000000  0.75000000  0.03960000  1.0
  C  C39  1  0.03960000  0.00000000  0.75000000  1.0
