# generated using pymatgen
data_GeF4
_symmetry_space_group_name_H-M   'P 1'
_cell_length_a   5.48500000
_cell_length_b   5.48500000
_cell_length_c   5.48500000
_cell_angle_alpha   90.00000000
_cell_angle_beta   90.00000000
_cell_angle_gamma   90.00000000
_symmetry_Int_Tables_number   1
_chemical_formula_structural   GeF4
_chemical_formula_sum   'Ge2 F8'
_cell_volume   165.01745913
_cell_formula_units_Z   2
loop_
 _symmetry_equiv_pos_site_id
 _symmetry_equiv_pos_as_xyz
  1  'x, y, z'
loop_
 _atom_site_type_symbol
 _atom_site_label
 _atom_site_symmetry_multiplicity
 _atom_site_fract_x
 _atom_site_fract_y
 _atom_site_fract_z
 _atom_site_occupancy
  Ge  Ge0  1  0.00000000  0.00000000  0.00000000  1.0
  Ge  Ge1  1  0.50000000  0.50000000  0.50000000  1.0
  F  F2  1  0.17480000  0.17480000  0.17480000  1.0
  F  F3  1  0.82520000  0.82520000  0.17480000  1.0
  F  F4  1  0.82520000  0.17480000  0.82520000  1.0
  F  F5  1  0.17480000  0.82520000  0.82520000  1.0
  F  F6  1  0.67480000  0.67480000  0.67480000  1.0
  F  F7  1  0.32520000  0.32520000  0.67480000  1.0
  F  F8  1  0.32520000  0.67480000  0.32520000  1.0
  F  F9  1  0.67480000  0.32520000  0.32520000  1.0
