# generated using pymatgen
data_GeI4
_symmetry_space_group_name_H-M   'P 1'
_cell_length_a   11.86100000
_cell_length_b   11.86100000
_cell_length_c   11.86100000
_cell_angle_alpha   90.00000000
_cell_angle_beta   90.00000000
_cell_angle_gamma   90.00000000
_symmetry_Int_Tables_number   1
_chemical_formula_structural   GeI4
_chemical_formula_sum   'Ge8 I32'
_cell_volume   1668.64487038
_cell_formula_units_Z   8
loop_
 _symmetry_equiv_pos_site_id
 _symmetry_equiv_pos_as_xyz
  1  'x, y, z'
loop_
 _atom_site_type_symbol
 _atom_site_label
 _atom_site_symmetry_multiplicity
 _atom_site_fract_x
 _atom_site_fract_y
 _atom_site_fract_z
 _atom_site_occupancy
  Ge  Ge0  1  0.12923000  0.12923000  0.12923000  1.0
  Ge  Ge1  1  0.37077000  0.87077000  0.62923000  1.0
  Ge  Ge2  1  0.37077000  0.62923000  0.12923000  1.0
  Ge  Ge3  1  0.87077000  0.87077000  0.87077000  1.0
  Ge  Ge4  1  0.87077000  0.62923000  0.37077000  1.0
  Ge  Ge5  1  0.62923000  0.37077000  0.87077000  1.0
  Ge  Ge6  1  0.62923000  0.12923000  0.37077000  1.0
  Ge  Ge7  1  0.12923000  0.37077000  0.62923000  1.0
  I  I8  1  0.98694000  0.50289000  0.24797000  1.0
  I  I9  1  0.51306000  0.49711000  0.74797000  1.0
  I  I10  1  0.51306000  0.00289000  0.24797000  1.0
  I  I11  1  0.01306000  0.49711000  0.75203000  1.0
  I  I12  1  0.01306000  0.00289000  0.25203000  1.0
  I  I13  1  0.99711000  0.75203000  0.48694000  1.0
  I  I14  1  0.99711000  0.74797000  0.98694000  1.0
  I  I15  1  0.49711000  0.75203000  0.01306000  1.0
  I  I16  1  0.49711000  0.74797000  0.51306000  1.0
  I  I17  1  0.25203000  0.01306000  0.00289000  1.0
  I  I18  1  0.25203000  0.48694000  0.50289000  1.0
  I  I19  1  0.75203000  0.01306000  0.49711000  1.0
  I  I20  1  0.75203000  0.48694000  0.99711000  1.0
  I  I21  1  0.48694000  0.99711000  0.75203000  1.0
  I  I22  1  0.48694000  0.50289000  0.25203000  1.0
  I  I23  1  0.98694000  0.99711000  0.74797000  1.0
  I  I24  1  0.00289000  0.25203000  0.01306000  1.0
  I  I25  1  0.00289000  0.24797000  0.51306000  1.0
  I  I26  1  0.50289000  0.25203000  0.48694000  1.0
  I  I27  1  0.50289000  0.24797000  0.98694000  1.0
  I  I28  1  0.74797000  0.51306000  0.49711000  1.0
  I  I29  1  0.74797000  0.98694000  0.99711000  1.0
  I  I30  1  0.24797000  0.51306000  0.00289000  1.0
  I  I31  1  0.24797000  0.98694000  0.50289000  1.0
  I  I32  1  0.25071000  0.25071000  0.25071000  1.0
  I  I33  1  0.24929000  0.74929000  0.75071000  1.0
  I  I34  1  0.24929000  0.75071000  0.25071000  1.0
  I  I35  1  0.74929000  0.74929000  0.74929000  1.0
  I  I36  1  0.74929000  0.75071000  0.24929000  1.0
  I  I37  1  0.75071000  0.24929000  0.74929000  1.0
  I  I38  1  0.75071000  0.25071000  0.24929000  1.0
  I  I39  1  0.25071000  0.24929000  0.75071000  1.0
