# generated using pymatgen
data_GeI4
_symmetry_space_group_name_H-M   'P 1'
_cell_length_a   12.03030000
_cell_length_b   12.03030000
_cell_length_c   12.03030000
_cell_angle_alpha   90.00000000
_cell_angle_beta   90.00000000
_cell_angle_gamma   90.00000000
_symmetry_Int_Tables_number   1
_chemical_formula_structural   GeI4
_chemical_formula_sum   'Ge8 I32'
_cell_volume   1741.12267906
_cell_formula_units_Z   8
loop_
 _symmetry_equiv_pos_site_id
 _symmetry_equiv_pos_as_xyz
  1  'x, y, z'
loop_
 _atom_site_type_symbol
 _atom_site_label
 _atom_site_symmetry_multiplicity
 _atom_site_fract_x
 _atom_site_fract_y
 _atom_site_fract_z
 _atom_site_occupancy
  Ge  Ge0  1  0.13001000  0.13001000  0.13001000  1.0
  Ge  Ge1  1  0.36999000  0.86999000  0.63001000  1.0
  Ge  Ge2  1  0.36999000  0.63001000  0.13001000  1.0
  Ge  Ge3  1  0.86999000  0.86999000  0.86999000  1.0
  Ge  Ge4  1  0.86999000  0.63001000  0.36999000  1.0
  Ge  Ge5  1  0.63001000  0.36999000  0.86999000  1.0
  Ge  Ge6  1  0.63001000  0.13001000  0.36999000  1.0
  Ge  Ge7  1  0.13001000  0.36999000  0.63001000  1.0
  I  I8  1  0.98333000  0.50475000  0.24903000  1.0
  I  I9  1  0.51667000  0.49525000  0.74903000  1.0
  I  I10  1  0.51667000  0.00475000  0.24903000  1.0
  I  I11  1  0.01667000  0.49525000  0.75097000  1.0
  I  I12  1  0.01667000  0.00475000  0.25097000  1.0
  I  I13  1  0.99525000  0.75097000  0.48333000  1.0
  I  I14  1  0.99525000  0.74903000  0.98333000  1.0
  I  I15  1  0.49525000  0.75097000  0.01667000  1.0
  I  I16  1  0.49525000  0.74903000  0.51667000  1.0
  I  I17  1  0.25097000  0.01667000  0.00475000  1.0
  I  I18  1  0.25097000  0.48333000  0.50475000  1.0
  I  I19  1  0.75097000  0.01667000  0.49525000  1.0
  I  I20  1  0.75097000  0.48333000  0.99525000  1.0
  I  I21  1  0.48333000  0.99525000  0.75097000  1.0
  I  I22  1  0.48333000  0.50475000  0.25097000  1.0
  I  I23  1  0.98333000  0.99525000  0.74903000  1.0
  I  I24  1  0.00475000  0.25097000  0.01667000  1.0
  I  I25  1  0.00475000  0.24903000  0.51667000  1.0
  I  I26  1  0.50475000  0.25097000  0.48333000  1.0
  I  I27  1  0.50475000  0.24903000  0.98333000  1.0
  I  I28  1  0.74903000  0.51667000  0.49525000  1.0
  I  I29  1  0.74903000  0.98333000  0.99525000  1.0
  I  I30  1  0.24903000  0.51667000  0.00475000  1.0
  I  I31  1  0.24903000  0.98333000  0.50475000  1.0
  I  I32  1  0.24976000  0.24976000  0.24976000  1.0
  I  I33  1  0.25024000  0.75024000  0.74976000  1.0
  I  I34  1  0.25024000  0.74976000  0.24976000  1.0
  I  I35  1  0.75024000  0.75024000  0.75024000  1.0
  I  I36  1  0.75024000  0.74976000  0.25024000  1.0
  I  I37  1  0.74976000  0.25024000  0.75024000  1.0
  I  I38  1  0.74976000  0.24976000  0.25024000  1.0
  I  I39  1  0.24976000  0.25024000  0.74976000  1.0
