# generated using pymatgen
data_HfBr4
_symmetry_space_group_name_H-M   'P 1'
_cell_length_a   10.91000000
_cell_length_b   10.91000000
_cell_length_c   10.91000000
_cell_angle_alpha   90.00000000
_cell_angle_beta   90.00000000
_cell_angle_gamma   90.00000000
_symmetry_Int_Tables_number   1
_chemical_formula_structural   HfBr4
_chemical_formula_sum   'Hf8 Br32'
_cell_volume   1298.59657100
_cell_formula_units_Z   8
loop_
 _symmetry_equiv_pos_site_id
 _symmetry_equiv_pos_as_xyz
  1  'x, y, z'
loop_
 _atom_site_type_symbol
 _atom_site_label
 _atom_site_symmetry_multiplicity
 _atom_site_fract_x
 _atom_site_fract_y
 _atom_site_fract_z
 _atom_site_occupancy
  Hf  Hf0  1  0.12500000  0.12500000  0.12500000  1.0
  Hf  Hf1  1  0.37500000  0.87500000  0.62500000  1.0
  Hf  Hf2  1  0.37500000  0.62500000  0.12500000  1.0
  Hf  Hf3  1  0.87500000  0.87500000  0.87500000  1.0
  Hf  Hf4  1  0.87500000  0.62500000  0.37500000  1.0
  Hf  Hf5  1  0.62500000  0.37500000  0.87500000  1.0
  Hf  Hf6  1  0.62500000  0.12500000  0.37500000  1.0
  Hf  Hf7  1  0.12500000  0.37500000  0.62500000  1.0
  Br  Br8  1  0.00200000  0.49800000  0.24800000  1.0
  Br  Br9  1  0.49800000  0.50200000  0.74800000  1.0
  Br  Br10  1  0.49800000  0.99800000  0.24800000  1.0
  Br  Br11  1  0.99800000  0.50200000  0.75200000  1.0
  Br  Br12  1  0.99800000  0.99800000  0.25200000  1.0
  Br  Br13  1  0.00200000  0.75200000  0.50200000  1.0
  Br  Br14  1  0.00200000  0.74800000  0.00200000  1.0
  Br  Br15  1  0.50200000  0.75200000  0.99800000  1.0
  Br  Br16  1  0.50200000  0.74800000  0.49800000  1.0
  Br  Br17  1  0.25200000  0.99800000  0.99800000  1.0
  Br  Br18  1  0.25200000  0.50200000  0.49800000  1.0
  Br  Br19  1  0.75200000  0.99800000  0.50200000  1.0
  Br  Br20  1  0.75200000  0.50200000  0.00200000  1.0
  Br  Br21  1  0.50200000  0.00200000  0.75200000  1.0
  Br  Br22  1  0.50200000  0.49800000  0.25200000  1.0
  Br  Br23  1  0.00200000  0.00200000  0.74800000  1.0
  Br  Br24  1  0.99800000  0.25200000  0.99800000  1.0
  Br  Br25  1  0.99800000  0.24800000  0.49800000  1.0
  Br  Br26  1  0.49800000  0.25200000  0.50200000  1.0
  Br  Br27  1  0.49800000  0.24800000  0.00200000  1.0
  Br  Br28  1  0.74800000  0.49800000  0.50200000  1.0
  Br  Br29  1  0.74800000  0.00200000  0.00200000  1.0
  Br  Br30  1  0.24800000  0.49800000  0.99800000  1.0
  Br  Br31  1  0.24800000  0.00200000  0.49800000  1.0
  Br  Br32  1  0.25200000  0.25200000  0.25200000  1.0
  Br  Br33  1  0.24800000  0.74800000  0.75200000  1.0
  Br  Br34  1  0.24800000  0.75200000  0.25200000  1.0
  Br  Br35  1  0.74800000  0.74800000  0.74800000  1.0
  Br  Br36  1  0.74800000  0.75200000  0.24800000  1.0
  Br  Br37  1  0.75200000  0.24800000  0.74800000  1.0
  Br  Br38  1  0.75200000  0.25200000  0.24800000  1.0
  Br  Br39  1  0.25200000  0.24800000  0.75200000  1.0
