# generated using pymatgen
data_HfSb
_symmetry_space_group_name_H-M   'P 1'
_cell_length_a   5.59000000
_cell_length_b   5.59000000
_cell_length_c   5.59000000
_cell_angle_alpha   90.00000000
_cell_angle_beta   90.00000000
_cell_angle_gamma   90.00000000
_symmetry_Int_Tables_number   1
_chemical_formula_structural   HfSb
_chemical_formula_sum   'Hf4 Sb4'
_cell_volume   174.67687900
_cell_formula_units_Z   4
loop_
 _symmetry_equiv_pos_site_id
 _symmetry_equiv_pos_as_xyz
  1  'x, y, z'
loop_
 _atom_site_type_symbol
 _atom_site_label
 _atom_site_symmetry_multiplicity
 _atom_site_fract_x
 _atom_site_fract_y
 _atom_site_fract_z
 _atom_site_occupancy
  Hf  Hf0  1  0.38650000  0.38650000  0.38650000  1.0
  Hf  Hf1  1  0.11350000  0.61350000  0.88650000  1.0
  Hf  Hf2  1  0.61350000  0.88650000  0.11350000  1.0
  Hf  Hf3  1  0.88650000  0.11350000  0.61350000  1.0
  Sb  Sb4  1  0.09262000  0.09262000  0.09262000  1.0
  Sb  Sb5  1  0.40738000  0.90738000  0.59262000  1.0
  Sb  Sb6  1  0.90738000  0.59262000  0.40738000  1.0
  Sb  Sb7  1  0.59262000  0.40738000  0.90738000  1.0
