# generated using pymatgen
data_Hg3(PS4)2
_symmetry_space_group_name_H-M   'P 1'
_cell_length_a   13.56000000
_cell_length_b   13.56000000
_cell_length_c   13.56000000
_cell_angle_alpha   90.00000000
_cell_angle_beta   90.00000000
_cell_angle_gamma   90.00000000
_symmetry_Int_Tables_number   1
_chemical_formula_structural   Hg3(PS4)2
_chemical_formula_sum   'Hg12 P8 S32'
_cell_volume   2493.32601600
_cell_formula_units_Z   4
loop_
 _symmetry_equiv_pos_site_id
 _symmetry_equiv_pos_as_xyz
  1  'x, y, z'
loop_
 _atom_site_type_symbol
 _atom_site_label
 _atom_site_symmetry_multiplicity
 _atom_site_fract_x
 _atom_site_fract_y
 _atom_site_fract_z
 _atom_site_occupancy
  Hg  Hg0  1  0.13760000  0.47580000  0.24300000  1.0
  Hg  Hg1  1  0.36240000  0.52420000  0.74300000  1.0
  Hg  Hg2  1  0.86240000  0.97580000  0.25700000  1.0
  Hg  Hg3  1  0.02420000  0.75700000  0.63760000  1.0
  Hg  Hg4  1  0.52420000  0.74300000  0.36240000  1.0
  Hg  Hg5  1  0.25700000  0.86240000  0.97580000  1.0
  Hg  Hg6  1  0.75700000  0.63760000  0.02420000  1.0
  Hg  Hg7  1  0.63760000  0.02420000  0.75700000  1.0
  Hg  Hg8  1  0.97580000  0.25700000  0.86240000  1.0
  Hg  Hg9  1  0.47580000  0.24300000  0.13760000  1.0
  Hg  Hg10  1  0.74300000  0.36240000  0.52420000  1.0
  Hg  Hg11  1  0.24300000  0.13760000  0.47580000  1.0
  P  P12  1  0.15010000  0.15010000  0.15010000  1.0
  P  P13  1  0.34990000  0.84990000  0.65010000  1.0
  P  P14  1  0.84990000  0.65010000  0.34990000  1.0
  P  P15  1  0.65010000  0.34990000  0.84990000  1.0
  P  P16  1  0.42570000  0.42570000  0.42570000  1.0
  P  P17  1  0.07430000  0.57430000  0.92570000  1.0
  P  P18  1  0.57430000  0.92570000  0.07430000  1.0
  P  P19  1  0.92570000  0.07430000  0.57430000  1.0
  S  S20  1  0.00520000  0.24170000  0.59220000  1.0
  S  S21  1  0.49480000  0.75830000  0.09220000  1.0
  S  S22  1  0.99480000  0.74170000  0.90780000  1.0
  S  S23  1  0.25830000  0.40780000  0.50520000  1.0
  S  S24  1  0.75830000  0.09220000  0.49480000  1.0
  S  S25  1  0.90780000  0.99480000  0.74170000  1.0
  S  S26  1  0.40780000  0.50520000  0.25830000  1.0
  S  S27  1  0.50520000  0.25830000  0.40780000  1.0
  S  S28  1  0.74170000  0.90780000  0.99480000  1.0
  S  S29  1  0.24170000  0.59220000  0.00520000  1.0
  S  S30  1  0.09220000  0.49480000  0.75830000  1.0
  S  S31  1  0.59220000  0.00520000  0.24170000  1.0
  S  S32  1  0.04760000  0.23160000  0.28470000  1.0
  S  S33  1  0.45240000  0.76840000  0.78470000  1.0
  S  S34  1  0.95240000  0.73160000  0.21530000  1.0
  S  S35  1  0.26840000  0.71530000  0.54760000  1.0
  S  S36  1  0.76840000  0.78470000  0.45240000  1.0
  S  S37  1  0.21530000  0.95240000  0.73160000  1.0
  S  S38  1  0.71530000  0.54760000  0.26840000  1.0
  S  S39  1  0.54760000  0.26840000  0.71530000  1.0
  S  S40  1  0.73160000  0.21530000  0.95240000  1.0
  S  S41  1  0.23160000  0.28470000  0.04760000  1.0
  S  S42  1  0.78470000  0.45240000  0.76840000  1.0
  S  S43  1  0.28470000  0.04760000  0.23160000  1.0
  S  S44  1  0.04290000  0.04290000  0.04290000  1.0
  S  S45  1  0.45710000  0.95710000  0.54290000  1.0
  S  S46  1  0.95710000  0.54290000  0.45710000  1.0
  S  S47  1  0.54290000  0.45710000  0.95710000  1.0
  S  S48  1  0.53470000  0.53470000  0.53470000  1.0
  S  S49  1  0.96530000  0.46530000  0.03470000  1.0
  S  S50  1  0.46530000  0.03470000  0.96530000  1.0
  S  S51  1  0.03470000  0.96530000  0.46530000  1.0
