# generated using pymatgen
data_Hg3(SeCl)2
_symmetry_space_group_name_H-M   'P 1'
_cell_length_a   9.06000000
_cell_length_b   9.06000000
_cell_length_c   9.06000000
_cell_angle_alpha   90.00000000
_cell_angle_beta   90.00000000
_cell_angle_gamma   90.00000000
_symmetry_Int_Tables_number   1
_chemical_formula_structural   Hg3(SeCl)2
_chemical_formula_sum   'Hg12 Se8 Cl8'
_cell_volume   743.67741600
_cell_formula_units_Z   4
loop_
 _symmetry_equiv_pos_site_id
 _symmetry_equiv_pos_as_xyz
  1  'x, y, z'
loop_
 _atom_site_type_symbol
 _atom_site_label
 _atom_site_symmetry_multiplicity
 _atom_site_fract_x
 _atom_site_fract_y
 _atom_site_fract_z
 _atom_site_occupancy
  Hg  Hg0  1  0.30500000  0.00000000  0.25000000  1.0
  Hg  Hg1  1  0.19500000  0.00000000  0.75000000  1.0
  Hg  Hg2  1  0.69500000  0.50000000  0.25000000  1.0
  Hg  Hg3  1  0.50000000  0.25000000  0.69500000  1.0
  Hg  Hg4  1  0.00000000  0.25000000  0.30500000  1.0
  Hg  Hg5  1  0.25000000  0.30500000  0.00000000  1.0
  Hg  Hg6  1  0.75000000  0.19500000  0.00000000  1.0
  Hg  Hg7  1  0.00000000  0.75000000  0.19500000  1.0
  Hg  Hg8  1  0.25000000  0.69500000  0.50000000  1.0
  Hg  Hg9  1  0.80500000  0.50000000  0.75000000  1.0
  Hg  Hg10  1  0.50000000  0.75000000  0.80500000  1.0
  Hg  Hg11  1  0.75000000  0.80500000  0.50000000  1.0
  Se  Se12  1  0.27400000  0.27400000  0.27400000  1.0
  Se  Se13  1  0.22600000  0.27400000  0.72600000  1.0
  Se  Se14  1  0.72600000  0.22600000  0.27400000  1.0
  Se  Se15  1  0.27400000  0.72600000  0.22600000  1.0
  Se  Se16  1  0.77400000  0.77400000  0.77400000  1.0
  Se  Se17  1  0.72600000  0.77400000  0.22600000  1.0
  Se  Se18  1  0.22600000  0.72600000  0.77400000  1.0
  Se  Se19  1  0.77400000  0.22600000  0.72600000  1.0
  Cl  Cl20  1  0.01400000  0.01400000  0.01400000  1.0
  Cl  Cl21  1  0.48600000  0.01400000  0.98600000  1.0
  Cl  Cl22  1  0.98600000  0.48600000  0.01400000  1.0
  Cl  Cl23  1  0.01400000  0.98600000  0.48600000  1.0
  Cl  Cl24  1  0.51400000  0.51400000  0.51400000  1.0
  Cl  Cl25  1  0.98600000  0.51400000  0.48600000  1.0
  Cl  Cl26  1  0.48600000  0.98600000  0.51400000  1.0
  Cl  Cl27  1  0.51400000  0.48600000  0.98600000  1.0
