# generated using pymatgen
data_Hg3(SI)2
_symmetry_space_group_name_H-M   'P 1'
_cell_length_a   9.66000000
_cell_length_b   9.66000000
_cell_length_c   9.66000000
_cell_angle_alpha   90.00000000
_cell_angle_beta   90.00000000
_cell_angle_gamma   90.00000000
_symmetry_Int_Tables_number   1
_chemical_formula_structural   Hg3(SI)2
_chemical_formula_sum   'Hg12 S8 I8'
_cell_volume   901.42869600
_cell_formula_units_Z   4
loop_
 _symmetry_equiv_pos_site_id
 _symmetry_equiv_pos_as_xyz
  1  'x, y, z'
loop_
 _atom_site_type_symbol
 _atom_site_label
 _atom_site_symmetry_multiplicity
 _atom_site_fract_x
 _atom_site_fract_y
 _atom_site_fract_z
 _atom_site_occupancy
  Hg  Hg0  1  0.30290000  0.00000000  0.25000000  1.0
  Hg  Hg1  1  0.19710000  0.00000000  0.75000000  1.0
  Hg  Hg2  1  0.69710000  0.50000000  0.25000000  1.0
  Hg  Hg3  1  0.50000000  0.25000000  0.69710000  1.0
  Hg  Hg4  1  0.00000000  0.25000000  0.30290000  1.0
  Hg  Hg5  1  0.25000000  0.30290000  0.00000000  1.0
  Hg  Hg6  1  0.75000000  0.19710000  0.00000000  1.0
  Hg  Hg7  1  0.00000000  0.75000000  0.19710000  1.0
  Hg  Hg8  1  0.25000000  0.69710000  0.50000000  1.0
  Hg  Hg9  1  0.80290000  0.50000000  0.75000000  1.0
  Hg  Hg10  1  0.50000000  0.75000000  0.80290000  1.0
  Hg  Hg11  1  0.75000000  0.80290000  0.50000000  1.0
  S  S12  1  0.27090000  0.27090000  0.27090000  1.0
  S  S13  1  0.22910000  0.27090000  0.72910000  1.0
  S  S14  1  0.72910000  0.22910000  0.27090000  1.0
  S  S15  1  0.27090000  0.72910000  0.22910000  1.0
  S  S16  1  0.77090000  0.77090000  0.77090000  1.0
  S  S17  1  0.72910000  0.77090000  0.22910000  1.0
  S  S18  1  0.22910000  0.72910000  0.77090000  1.0
  S  S19  1  0.77090000  0.22910000  0.72910000  1.0
  I  I20  1  0.01070000  0.01070000  0.01070000  1.0
  I  I21  1  0.48930000  0.01070000  0.98930000  1.0
  I  I22  1  0.98930000  0.48930000  0.01070000  1.0
  I  I23  1  0.01070000  0.98930000  0.48930000  1.0
  I  I24  1  0.51070000  0.51070000  0.51070000  1.0
  I  I25  1  0.98930000  0.51070000  0.48930000  1.0
  I  I26  1  0.48930000  0.98930000  0.51070000  1.0
  I  I27  1  0.51070000  0.48930000  0.98930000  1.0
