# generated using pymatgen
data_Ho4Ge6Rh7
_symmetry_space_group_name_H-M   'P 1'
_cell_length_a   8.30500000
_cell_length_b   8.30500000
_cell_length_c   8.30500000
_cell_angle_alpha   90.00000000
_cell_angle_beta   90.00000000
_cell_angle_gamma   90.00000000
_symmetry_Int_Tables_number   1
_chemical_formula_structural   Ho4Ge6Rh7
_chemical_formula_sum   'Ho8 Ge12 Rh14'
_cell_volume   572.82097262
_cell_formula_units_Z   2
loop_
 _symmetry_equiv_pos_site_id
 _symmetry_equiv_pos_as_xyz
  1  'x, y, z'
loop_
 _atom_site_type_symbol
 _atom_site_label
 _atom_site_symmetry_multiplicity
 _atom_site_fract_x
 _atom_site_fract_y
 _atom_site_fract_z
 _atom_site_occupancy
  Ho  Ho0  1  0.25000000  0.25000000  0.25000000  1.0
  Ho  Ho1  1  0.75000000  0.75000000  0.75000000  1.0
  Ho  Ho2  1  0.75000000  0.75000000  0.25000000  1.0
  Ho  Ho3  1  0.75000000  0.25000000  0.75000000  1.0
  Ho  Ho4  1  0.75000000  0.25000000  0.25000000  1.0
  Ho  Ho5  1  0.25000000  0.75000000  0.75000000  1.0
  Ho  Ho6  1  0.25000000  0.75000000  0.25000000  1.0
  Ho  Ho7  1  0.25000000  0.25000000  0.75000000  1.0
  Ge  Ge8  1  0.29000000  0.00000000  0.00000000  1.0
  Ge  Ge9  1  0.71000000  0.00000000  0.00000000  1.0
  Ge  Ge10  1  0.00000000  0.71000000  0.00000000  1.0
  Ge  Ge11  1  0.00000000  0.00000000  0.71000000  1.0
  Ge  Ge12  1  0.00000000  0.00000000  0.29000000  1.0
  Ge  Ge13  1  0.00000000  0.29000000  0.00000000  1.0
  Ge  Ge14  1  0.79000000  0.50000000  0.50000000  1.0
  Ge  Ge15  1  0.21000000  0.50000000  0.50000000  1.0
  Ge  Ge16  1  0.50000000  0.21000000  0.50000000  1.0
  Ge  Ge17  1  0.50000000  0.50000000  0.21000000  1.0
  Ge  Ge18  1  0.50000000  0.50000000  0.79000000  1.0
  Ge  Ge19  1  0.50000000  0.79000000  0.50000000  1.0
  Rh  Rh20  1  0.25000000  0.00000000  0.50000000  1.0
  Rh  Rh21  1  0.75000000  0.00000000  0.50000000  1.0
  Rh  Rh22  1  0.75000000  0.50000000  0.00000000  1.0
  Rh  Rh23  1  0.00000000  0.75000000  0.50000000  1.0
  Rh  Rh24  1  0.00000000  0.50000000  0.75000000  1.0
  Rh  Rh25  1  0.00000000  0.50000000  0.25000000  1.0
  Rh  Rh26  1  0.00000000  0.25000000  0.50000000  1.0
  Rh  Rh27  1  0.50000000  0.75000000  0.00000000  1.0
  Rh  Rh28  1  0.50000000  0.00000000  0.75000000  1.0
  Rh  Rh29  1  0.50000000  0.00000000  0.25000000  1.0
  Rh  Rh30  1  0.50000000  0.25000000  0.00000000  1.0
  Rh  Rh31  1  0.25000000  0.50000000  0.00000000  1.0
  Rh  Rh32  1  0.00000000  0.00000000  0.00000000  1.0
  Rh  Rh33  1  0.50000000  0.50000000  0.50000000  1.0
