# generated using pymatgen
data_Ho4Sb3
_symmetry_space_group_name_H-M   'P 1'
_cell_length_a   9.07100000
_cell_length_b   9.07100000
_cell_length_c   9.07100000
_cell_angle_alpha   90.00000000
_cell_angle_beta   90.00000000
_cell_angle_gamma   90.00000000
_symmetry_Int_Tables_number   1
_chemical_formula_structural   Ho4Sb3
_chemical_formula_sum   'Ho16 Sb12'
_cell_volume   746.38946491
_cell_formula_units_Z   4
loop_
 _symmetry_equiv_pos_site_id
 _symmetry_equiv_pos_as_xyz
  1  'x, y, z'
loop_
 _atom_site_type_symbol
 _atom_site_label
 _atom_site_symmetry_multiplicity
 _atom_site_fract_x
 _atom_site_fract_y
 _atom_site_fract_z
 _atom_site_occupancy
  Ho  Ho0  1  0.08333000  0.08333000  0.08333000  1.0
  Ho  Ho1  1  0.41667000  0.08333000  0.91667000  1.0
  Ho  Ho2  1  0.16667000  0.33333000  0.66667000  1.0
  Ho  Ho3  1  0.91667000  0.41667000  0.08333000  1.0
  Ho  Ho4  1  0.66667000  0.16667000  0.33333000  1.0
  Ho  Ho5  1  0.33333000  0.66667000  0.16667000  1.0
  Ho  Ho6  1  0.33333000  0.33333000  0.33333000  1.0
  Ho  Ho7  1  0.08333000  0.91667000  0.41667000  1.0
  Ho  Ho8  1  0.58333000  0.58333000  0.58333000  1.0
  Ho  Ho9  1  0.91667000  0.58333000  0.41667000  1.0
  Ho  Ho10  1  0.66667000  0.83333000  0.16667000  1.0
  Ho  Ho11  1  0.41667000  0.91667000  0.58333000  1.0
  Ho  Ho12  1  0.16667000  0.66667000  0.83333000  1.0
  Ho  Ho13  1  0.83333000  0.16667000  0.66667000  1.0
  Ho  Ho14  1  0.83333000  0.83333000  0.83333000  1.0
  Ho  Ho15  1  0.58333000  0.41667000  0.91667000  1.0
  Sb  Sb16  1  0.37500000  0.00000000  0.25000000  1.0
  Sb  Sb17  1  0.12500000  0.00000000  0.75000000  1.0
  Sb  Sb18  1  0.87500000  0.50000000  0.75000000  1.0
  Sb  Sb19  1  0.62500000  0.50000000  0.25000000  1.0
  Sb  Sb20  1  0.50000000  0.25000000  0.62500000  1.0
  Sb  Sb21  1  0.25000000  0.62500000  0.50000000  1.0
  Sb  Sb22  1  0.00000000  0.25000000  0.37500000  1.0
  Sb  Sb23  1  0.75000000  0.87500000  0.50000000  1.0
  Sb  Sb24  1  0.25000000  0.37500000  0.00000000  1.0
  Sb  Sb25  1  0.75000000  0.12500000  0.00000000  1.0
  Sb  Sb26  1  0.00000000  0.75000000  0.12500000  1.0
  Sb  Sb27  1  0.50000000  0.75000000  0.87500000  1.0
