# generated using pymatgen
data_Ho6Fe16O
_symmetry_space_group_name_H-M   'P 1'
_cell_length_a   8.86350000
_cell_length_b   8.86350000
_cell_length_c   8.86350000
_cell_angle_alpha   90.00000000
_cell_angle_beta   90.00000000
_cell_angle_gamma   90.00000000
_symmetry_Int_Tables_number   1
_chemical_formula_structural   Ho6Fe16O
_chemical_formula_sum   'Ho12 Fe32 O2'
_cell_volume   696.33102745
_cell_formula_units_Z   2
loop_
 _symmetry_equiv_pos_site_id
 _symmetry_equiv_pos_as_xyz
  1  'x, y, z'
loop_
 _atom_site_type_symbol
 _atom_site_label
 _atom_site_symmetry_multiplicity
 _atom_site_fract_x
 _atom_site_fract_y
 _atom_site_fract_z
 _atom_site_occupancy
  Ho  Ho0  1  0.27300000  0.00000000  0.00000000  1.0
  Ho  Ho1  1  0.72700000  0.00000000  0.00000000  1.0
  Ho  Ho2  1  0.00000000  0.72700000  0.00000000  1.0
  Ho  Ho3  1  0.00000000  0.00000000  0.72700000  1.0
  Ho  Ho4  1  0.00000000  0.00000000  0.27300000  1.0
  Ho  Ho5  1  0.00000000  0.27300000  0.00000000  1.0
  Ho  Ho6  1  0.77300000  0.50000000  0.50000000  1.0
  Ho  Ho7  1  0.22700000  0.50000000  0.50000000  1.0
  Ho  Ho8  1  0.50000000  0.22700000  0.50000000  1.0
  Ho  Ho9  1  0.50000000  0.50000000  0.22700000  1.0
  Ho  Ho10  1  0.50000000  0.50000000  0.77300000  1.0
  Ho  Ho11  1  0.50000000  0.77300000  0.50000000  1.0
  Fe  Fe12  1  0.00000000  0.34300000  0.34300000  1.0
  Fe  Fe13  1  0.00000000  0.65700000  0.65700000  1.0
  Fe  Fe14  1  0.00000000  0.65700000  0.34300000  1.0
  Fe  Fe15  1  0.00000000  0.34300000  0.65700000  1.0
  Fe  Fe16  1  0.65700000  0.00000000  0.65700000  1.0
  Fe  Fe17  1  0.65700000  0.00000000  0.34300000  1.0
  Fe  Fe18  1  0.65700000  0.65700000  0.00000000  1.0
  Fe  Fe19  1  0.65700000  0.34300000  0.00000000  1.0
  Fe  Fe20  1  0.34300000  0.00000000  0.65700000  1.0
  Fe  Fe21  1  0.34300000  0.00000000  0.34300000  1.0
  Fe  Fe22  1  0.34300000  0.65700000  0.00000000  1.0
  Fe  Fe23  1  0.34300000  0.34300000  0.00000000  1.0
  Fe  Fe24  1  0.50000000  0.84300000  0.84300000  1.0
  Fe  Fe25  1  0.50000000  0.15700000  0.15700000  1.0
  Fe  Fe26  1  0.50000000  0.15700000  0.84300000  1.0
  Fe  Fe27  1  0.50000000  0.84300000  0.15700000  1.0
  Fe  Fe28  1  0.15700000  0.50000000  0.15700000  1.0
  Fe  Fe29  1  0.15700000  0.50000000  0.84300000  1.0
  Fe  Fe30  1  0.15700000  0.15700000  0.50000000  1.0
  Fe  Fe31  1  0.15700000  0.84300000  0.50000000  1.0
  Fe  Fe32  1  0.84300000  0.50000000  0.15700000  1.0
  Fe  Fe33  1  0.84300000  0.50000000  0.84300000  1.0
  Fe  Fe34  1  0.84300000  0.15700000  0.50000000  1.0
  Fe  Fe35  1  0.84300000  0.84300000  0.50000000  1.0
  Fe  Fe36  1  0.25000000  0.25000000  0.25000000  1.0
  Fe  Fe37  1  0.75000000  0.75000000  0.75000000  1.0
  Fe  Fe38  1  0.75000000  0.75000000  0.25000000  1.0
  Fe  Fe39  1  0.75000000  0.25000000  0.75000000  1.0
  Fe  Fe40  1  0.75000000  0.25000000  0.25000000  1.0
  Fe  Fe41  1  0.25000000  0.75000000  0.75000000  1.0
  Fe  Fe42  1  0.25000000  0.75000000  0.25000000  1.0
  Fe  Fe43  1  0.25000000  0.25000000  0.75000000  1.0
  O  O44  1  0.00000000  0.00000000  0.00000000  1.0
  O  O45  1  0.50000000  0.50000000  0.50000000  1.0
