# generated using pymatgen
data_HoB12
_symmetry_space_group_name_H-M   'P 1'
_cell_length_a   7.49200000
_cell_length_b   7.49200000
_cell_length_c   7.49200000
_cell_angle_alpha   90.00000000
_cell_angle_beta   90.00000000
_cell_angle_gamma   90.00000000
_symmetry_Int_Tables_number   1
_chemical_formula_structural   HoB12
_chemical_formula_sum   'Ho4 B48'
_cell_volume   420.52643949
_cell_formula_units_Z   4
loop_
 _symmetry_equiv_pos_site_id
 _symmetry_equiv_pos_as_xyz
  1  'x, y, z'
loop_
 _atom_site_type_symbol
 _atom_site_label
 _atom_site_symmetry_multiplicity
 _atom_site_fract_x
 _atom_site_fract_y
 _atom_site_fract_z
 _atom_site_occupancy
  Ho  Ho0  1  0.00000000  0.00000000  0.00000000  1.0
  Ho  Ho1  1  0.00000000  0.50000000  0.50000000  1.0
  Ho  Ho2  1  0.50000000  0.00000000  0.50000000  1.0
  Ho  Ho3  1  0.50000000  0.50000000  0.00000000  1.0
  B  B4  1  0.50000000  0.17070000  0.17070000  1.0
  B  B5  1  0.50000000  0.82930000  0.82930000  1.0
  B  B6  1  0.50000000  0.82930000  0.17070000  1.0
  B  B7  1  0.50000000  0.17070000  0.82930000  1.0
  B  B8  1  0.82930000  0.50000000  0.82930000  1.0
  B  B9  1  0.82930000  0.50000000  0.17070000  1.0
  B  B10  1  0.82930000  0.82930000  0.50000000  1.0
  B  B11  1  0.82930000  0.17070000  0.50000000  1.0
  B  B12  1  0.17070000  0.50000000  0.82930000  1.0
  B  B13  1  0.17070000  0.50000000  0.17070000  1.0
  B  B14  1  0.17070000  0.82930000  0.50000000  1.0
  B  B15  1  0.17070000  0.17070000  0.50000000  1.0
  B  B16  1  0.50000000  0.67070000  0.67070000  1.0
  B  B17  1  0.50000000  0.32930000  0.32930000  1.0
  B  B18  1  0.50000000  0.32930000  0.67070000  1.0
  B  B19  1  0.50000000  0.67070000  0.32930000  1.0
  B  B20  1  0.82930000  0.00000000  0.32930000  1.0
  B  B21  1  0.82930000  0.00000000  0.67070000  1.0
  B  B22  1  0.82930000  0.32930000  0.00000000  1.0
  B  B23  1  0.82930000  0.67070000  0.00000000  1.0
  B  B24  1  0.17070000  0.00000000  0.32930000  1.0
  B  B25  1  0.17070000  0.00000000  0.67070000  1.0
  B  B26  1  0.17070000  0.32930000  0.00000000  1.0
  B  B27  1  0.17070000  0.67070000  0.00000000  1.0
  B  B28  1  0.00000000  0.17070000  0.67070000  1.0
  B  B29  1  0.00000000  0.82930000  0.32930000  1.0
  B  B30  1  0.00000000  0.82930000  0.67070000  1.0
  B  B31  1  0.00000000  0.17070000  0.32930000  1.0
  B  B32  1  0.32930000  0.50000000  0.32930000  1.0
  B  B33  1  0.32930000  0.50000000  0.67070000  1.0
  B  B34  1  0.32930000  0.82930000  0.00000000  1.0
  B  B35  1  0.32930000  0.17070000  0.00000000  1.0
  B  B36  1  0.67070000  0.50000000  0.32930000  1.0
  B  B37  1  0.67070000  0.50000000  0.67070000  1.0
  B  B38  1  0.67070000  0.82930000  0.00000000  1.0
  B  B39  1  0.67070000  0.17070000  0.00000000  1.0
  B  B40  1  0.00000000  0.67070000  0.17070000  1.0
  B  B41  1  0.00000000  0.32930000  0.82930000  1.0
  B  B42  1  0.00000000  0.32930000  0.17070000  1.0
  B  B43  1  0.00000000  0.67070000  0.82930000  1.0
  B  B44  1  0.32930000  0.00000000  0.82930000  1.0
  B  B45  1  0.32930000  0.00000000  0.17070000  1.0
  B  B46  1  0.32930000  0.32930000  0.50000000  1.0
  B  B47  1  0.32930000  0.67070000  0.50000000  1.0
  B  B48  1  0.67070000  0.00000000  0.82930000  1.0
  B  B49  1  0.67070000  0.00000000  0.17070000  1.0
  B  B50  1  0.67070000  0.32930000  0.50000000  1.0
  B  B51  1  0.67070000  0.67070000  0.50000000  1.0
