# generated using pymatgen
data_As3Ir
_symmetry_space_group_name_H-M   'P 1'
_cell_length_a   8.46730000
_cell_length_b   8.46730000
_cell_length_c   8.46730000
_cell_angle_alpha   90.00000000
_cell_angle_beta   90.00000000
_cell_angle_gamma   90.00000000
_symmetry_Int_Tables_number   1
_chemical_formula_structural   As3Ir
_chemical_formula_sum   'As24 Ir8'
_cell_volume   607.06450693
_cell_formula_units_Z   8
loop_
 _symmetry_equiv_pos_site_id
 _symmetry_equiv_pos_as_xyz
  1  'x, y, z'
loop_
 _atom_site_type_symbol
 _atom_site_label
 _atom_site_symmetry_multiplicity
 _atom_site_fract_x
 _atom_site_fract_y
 _atom_site_fract_z
 _atom_site_occupancy
  As  As0  1  0.00000000  0.14540000  0.34770000  1.0
  As  As1  1  0.00000000  0.85460000  0.65230000  1.0
  As  As2  1  0.00000000  0.85460000  0.34770000  1.0
  As  As3  1  0.00000000  0.14540000  0.65230000  1.0
  As  As4  1  0.85460000  0.65230000  0.00000000  1.0
  As  As5  1  0.85460000  0.34770000  0.00000000  1.0
  As  As6  1  0.65230000  0.00000000  0.85460000  1.0
  As  As7  1  0.65230000  0.00000000  0.14540000  1.0
  As  As8  1  0.14540000  0.65230000  0.00000000  1.0
  As  As9  1  0.14540000  0.34770000  0.00000000  1.0
  As  As10  1  0.34770000  0.00000000  0.85460000  1.0
  As  As11  1  0.34770000  0.00000000  0.14540000  1.0
  As  As12  1  0.50000000  0.64540000  0.84770000  1.0
  As  As13  1  0.50000000  0.35460000  0.15230000  1.0
  As  As14  1  0.50000000  0.35460000  0.84770000  1.0
  As  As15  1  0.50000000  0.64540000  0.15230000  1.0
  As  As16  1  0.35460000  0.15230000  0.50000000  1.0
  As  As17  1  0.35460000  0.84770000  0.50000000  1.0
  As  As18  1  0.15230000  0.50000000  0.35460000  1.0
  As  As19  1  0.15230000  0.50000000  0.64540000  1.0
  As  As20  1  0.64540000  0.15230000  0.50000000  1.0
  As  As21  1  0.64540000  0.84770000  0.50000000  1.0
  As  As22  1  0.84770000  0.50000000  0.35460000  1.0
  As  As23  1  0.84770000  0.50000000  0.64540000  1.0
  Ir  Ir24  1  0.25000000  0.25000000  0.25000000  1.0
  Ir  Ir25  1  0.75000000  0.75000000  0.75000000  1.0
  Ir  Ir26  1  0.75000000  0.75000000  0.25000000  1.0
  Ir  Ir27  1  0.75000000  0.25000000  0.75000000  1.0
  Ir  Ir28  1  0.75000000  0.25000000  0.25000000  1.0
  Ir  Ir29  1  0.25000000  0.75000000  0.75000000  1.0
  Ir  Ir30  1  0.25000000  0.75000000  0.25000000  1.0
  Ir  Ir31  1  0.25000000  0.25000000  0.75000000  1.0
