# generated using pymatgen
data_K3SbS3
_symmetry_space_group_name_H-M   'P 1'
_cell_length_a   9.46900000
_cell_length_b   9.46900000
_cell_length_c   9.46900000
_cell_angle_alpha   90.00000000
_cell_angle_beta   90.00000000
_cell_angle_gamma   90.00000000
_symmetry_Int_Tables_number   1
_chemical_formula_structural   K3SbS3
_chemical_formula_sum   'K12 Sb4 S12'
_cell_volume   849.00910871
_cell_formula_units_Z   4
loop_
 _symmetry_equiv_pos_site_id
 _symmetry_equiv_pos_as_xyz
  1  'x, y, z'
loop_
 _atom_site_type_symbol
 _atom_site_label
 _atom_site_symmetry_multiplicity
 _atom_site_fract_x
 _atom_site_fract_y
 _atom_site_fract_z
 _atom_site_occupancy
  K  K0  1  0.06040000  0.06040000  0.06040000  1.0
  K  K1  1  0.43960000  0.93960000  0.56040000  1.0
  K  K2  1  0.93960000  0.56040000  0.43960000  1.0
  K  K3  1  0.56040000  0.43960000  0.93960000  1.0
  K  K4  1  0.56810000  0.56810000  0.56810000  1.0
  K  K5  1  0.93190000  0.43190000  0.06810000  1.0
  K  K6  1  0.43190000  0.06810000  0.93190000  1.0
  K  K7  1  0.06810000  0.93190000  0.43190000  1.0
  K  K8  1  0.82850000  0.82850000  0.82850000  1.0
  K  K9  1  0.67150000  0.17150000  0.32850000  1.0
  K  K10  1  0.17150000  0.32850000  0.67150000  1.0
  K  K11  1  0.32850000  0.67150000  0.17150000  1.0
  Sb  Sb12  1  0.27810000  0.27810000  0.27810000  1.0
  Sb  Sb13  1  0.22190000  0.72190000  0.77810000  1.0
  Sb  Sb14  1  0.72190000  0.77810000  0.22190000  1.0
  Sb  Sb15  1  0.77810000  0.22190000  0.72190000  1.0
  S  S16  1  0.02800000  0.25190000  0.35400000  1.0
  S  S17  1  0.47200000  0.74810000  0.85400000  1.0
  S  S18  1  0.97200000  0.75190000  0.14600000  1.0
  S  S19  1  0.24810000  0.64600000  0.52800000  1.0
  S  S20  1  0.74810000  0.85400000  0.47200000  1.0
  S  S21  1  0.14600000  0.97200000  0.75190000  1.0
  S  S22  1  0.64600000  0.52800000  0.24810000  1.0
  S  S23  1  0.52800000  0.24810000  0.64600000  1.0
  S  S24  1  0.75190000  0.14600000  0.97200000  1.0
  S  S25  1  0.25190000  0.35400000  0.02800000  1.0
  S  S26  1  0.85400000  0.47200000  0.74810000  1.0
  S  S27  1  0.35400000  0.02800000  0.25190000  1.0
