# generated using pymatgen
data_K3SbTe3
_symmetry_space_group_name_H-M   'P 1'
_cell_length_a   10.30600000
_cell_length_b   10.30600000
_cell_length_c   10.30600000
_cell_angle_alpha   90.00000000
_cell_angle_beta   90.00000000
_cell_angle_gamma   90.00000000
_symmetry_Int_Tables_number   1
_chemical_formula_structural   K3SbTe3
_chemical_formula_sum   'K12 Sb4 Te12'
_cell_volume   1094.63773262
_cell_formula_units_Z   4
loop_
 _symmetry_equiv_pos_site_id
 _symmetry_equiv_pos_as_xyz
  1  'x, y, z'
loop_
 _atom_site_type_symbol
 _atom_site_label
 _atom_site_symmetry_multiplicity
 _atom_site_fract_x
 _atom_site_fract_y
 _atom_site_fract_z
 _atom_site_occupancy
  K  K0  1  0.06720000  0.06720000  0.06720000  1.0
  K  K1  1  0.43280000  0.93280000  0.56720000  1.0
  K  K2  1  0.93280000  0.56720000  0.43280000  1.0
  K  K3  1  0.56720000  0.43280000  0.93280000  1.0
  K  K4  1  0.57450000  0.57450000  0.57450000  1.0
  K  K5  1  0.92550000  0.42550000  0.07450000  1.0
  K  K6  1  0.42550000  0.07450000  0.92550000  1.0
  K  K7  1  0.07450000  0.92550000  0.42550000  1.0
  K  K8  1  0.82730000  0.82730000  0.82730000  1.0
  K  K9  1  0.67270000  0.17270000  0.32730000  1.0
  K  K10  1  0.17270000  0.32730000  0.67270000  1.0
  K  K11  1  0.32730000  0.67270000  0.17270000  1.0
  Sb  Sb12  1  0.28217000  0.28217000  0.28217000  1.0
  Sb  Sb13  1  0.21783000  0.71783000  0.78217000  1.0
  Sb  Sb14  1  0.71783000  0.78217000  0.21783000  1.0
  Sb  Sb15  1  0.78217000  0.21783000  0.71783000  1.0
  Te  Te16  1  0.02621000  0.25076000  0.36226000  1.0
  Te  Te17  1  0.47379000  0.74924000  0.86226000  1.0
  Te  Te18  1  0.97379000  0.75076000  0.13774000  1.0
  Te  Te19  1  0.24924000  0.63774000  0.52621000  1.0
  Te  Te20  1  0.74924000  0.86226000  0.47379000  1.0
  Te  Te21  1  0.13774000  0.97379000  0.75076000  1.0
  Te  Te22  1  0.63774000  0.52621000  0.24924000  1.0
  Te  Te23  1  0.52621000  0.24924000  0.63774000  1.0
  Te  Te24  1  0.75076000  0.13774000  0.97379000  1.0
  Te  Te25  1  0.25076000  0.36226000  0.02621000  1.0
  Te  Te26  1  0.86226000  0.47379000  0.74924000  1.0
  Te  Te27  1  0.36226000  0.02621000  0.25076000  1.0
