# generated using pymatgen
data_K3SbS4
_symmetry_space_group_name_H-M   'P 1'
_cell_length_a   7.67000000
_cell_length_b   7.67000000
_cell_length_c   7.67000000
_cell_angle_alpha   90.00000000
_cell_angle_beta   90.00000000
_cell_angle_gamma   90.00000000
_symmetry_Int_Tables_number   1
_chemical_formula_structural   K3SbS4
_chemical_formula_sum   'K6 Sb2 S8'
_cell_volume   451.21766300
_cell_formula_units_Z   2
loop_
 _symmetry_equiv_pos_site_id
 _symmetry_equiv_pos_as_xyz
  1  'x, y, z'
loop_
 _atom_site_type_symbol
 _atom_site_label
 _atom_site_symmetry_multiplicity
 _atom_site_fract_x
 _atom_site_fract_y
 _atom_site_fract_z
 _atom_site_occupancy
  K  K0  1  0.00000000  0.50000000  0.50000000  1.0
  K  K1  1  0.50000000  0.00000000  0.50000000  1.0
  K  K2  1  0.50000000  0.50000000  0.00000000  1.0
  K  K3  1  0.50000000  0.00000000  0.00000000  1.0
  K  K4  1  0.00000000  0.50000000  0.00000000  1.0
  K  K5  1  0.00000000  0.00000000  0.50000000  1.0
  Sb  Sb6  1  0.00000000  0.00000000  0.00000000  1.0
  Sb  Sb7  1  0.50000000  0.50000000  0.50000000  1.0
  S  S8  1  0.17800000  0.17800000  0.17800000  1.0
  S  S9  1  0.82200000  0.82200000  0.17800000  1.0
  S  S10  1  0.82200000  0.17800000  0.82200000  1.0
  S  S11  1  0.17800000  0.82200000  0.82200000  1.0
  S  S12  1  0.67800000  0.67800000  0.67800000  1.0
  S  S13  1  0.32200000  0.32200000  0.67800000  1.0
  S  S14  1  0.32200000  0.67800000  0.32200000  1.0
  S  S15  1  0.67800000  0.32200000  0.32200000  1.0
