# generated using pymatgen
data_K9C
_symmetry_space_group_name_H-M   'P 1'
_cell_length_a   15.69000000
_cell_length_b   15.69000000
_cell_length_c   15.69000000
_cell_angle_alpha   90.00000000
_cell_angle_beta   90.00000000
_cell_angle_gamma   90.00000000
_symmetry_Int_Tables_number   1
_chemical_formula_structural   K9C
_chemical_formula_sum   'K36 C4'
_cell_volume   3862.50300900
_cell_formula_units_Z   4
loop_
 _symmetry_equiv_pos_site_id
 _symmetry_equiv_pos_as_xyz
  1  'x, y, z'
loop_
 _atom_site_type_symbol
 _atom_site_label
 _atom_site_symmetry_multiplicity
 _atom_site_fract_x
 _atom_site_fract_y
 _atom_site_fract_z
 _atom_site_occupancy
  K  K0  1  0.14610000  0.14610000  0.14610000  1.0
  K  K1  1  0.85390000  0.85390000  0.14610000  1.0
  K  K2  1  0.85390000  0.14610000  0.85390000  1.0
  K  K3  1  0.14610000  0.85390000  0.85390000  1.0
  K  K4  1  0.14610000  0.64610000  0.64610000  1.0
  K  K5  1  0.85390000  0.35390000  0.64610000  1.0
  K  K6  1  0.85390000  0.64610000  0.35390000  1.0
  K  K7  1  0.14610000  0.35390000  0.35390000  1.0
  K  K8  1  0.64610000  0.14610000  0.64610000  1.0
  K  K9  1  0.35390000  0.85390000  0.64610000  1.0
  K  K10  1  0.35390000  0.14610000  0.35390000  1.0
  K  K11  1  0.64610000  0.85390000  0.35390000  1.0
  K  K12  1  0.64610000  0.64610000  0.14610000  1.0
  K  K13  1  0.35390000  0.35390000  0.14610000  1.0
  K  K14  1  0.35390000  0.64610000  0.85390000  1.0
  K  K15  1  0.64610000  0.35390000  0.85390000  1.0
  K  K16  1  0.40610000  0.40610000  0.40610000  1.0
  K  K17  1  0.59390000  0.59390000  0.40610000  1.0
  K  K18  1  0.59390000  0.40610000  0.59390000  1.0
  K  K19  1  0.40610000  0.59390000  0.59390000  1.0
  K  K20  1  0.40610000  0.90610000  0.90610000  1.0
  K  K21  1  0.59390000  0.09390000  0.90610000  1.0
  K  K22  1  0.59390000  0.90610000  0.09390000  1.0
  K  K23  1  0.40610000  0.09390000  0.09390000  1.0
  K  K24  1  0.90610000  0.40610000  0.90610000  1.0
  K  K25  1  0.09390000  0.59390000  0.90610000  1.0
  K  K26  1  0.09390000  0.40610000  0.09390000  1.0
  K  K27  1  0.90610000  0.59390000  0.09390000  1.0
  K  K28  1  0.90610000  0.90610000  0.40610000  1.0
  K  K29  1  0.09390000  0.09390000  0.40610000  1.0
  K  K30  1  0.09390000  0.90610000  0.59390000  1.0
  K  K31  1  0.90610000  0.09390000  0.59390000  1.0
  K  K32  1  0.00000000  0.00000000  0.00000000  1.0
  K  K33  1  0.00000000  0.50000000  0.50000000  1.0
  K  K34  1  0.50000000  0.00000000  0.50000000  1.0
  K  K35  1  0.50000000  0.50000000  0.00000000  1.0
  C  C36  1  0.75000000  0.75000000  0.75000000  1.0
  C  C37  1  0.25000000  0.25000000  0.75000000  1.0
  C  C38  1  0.25000000  0.75000000  0.25000000  1.0
  C  C39  1  0.75000000  0.25000000  0.25000000  1.0
