# generated using pymatgen
data_LaTiO3
_symmetry_space_group_name_H-M   'P 1'
_cell_length_a   7.78370000
_cell_length_b   7.78370000
_cell_length_c   7.78370000
_cell_angle_alpha   90.00000000
_cell_angle_beta   90.00000000
_cell_angle_gamma   90.00000000
_symmetry_Int_Tables_number   1
_chemical_formula_structural   LaTiO3
_chemical_formula_sum   'La8 Ti8 O24'
_cell_volume   471.58313682
_cell_formula_units_Z   8
loop_
 _symmetry_equiv_pos_site_id
 _symmetry_equiv_pos_as_xyz
  1  'x, y, z'
loop_
 _atom_site_type_symbol
 _atom_site_label
 _atom_site_symmetry_multiplicity
 _atom_site_fract_x
 _atom_site_fract_y
 _atom_site_fract_z
 _atom_site_occupancy
  La  La0  1  0.25000000  0.25000000  0.25000000  1.0
  La  La1  1  0.75000000  0.75000000  0.75000000  1.0
  La  La2  1  0.75000000  0.75000000  0.25000000  1.0
  La  La3  1  0.75000000  0.25000000  0.75000000  1.0
  La  La4  1  0.75000000  0.25000000  0.25000000  1.0
  La  La5  1  0.25000000  0.75000000  0.75000000  1.0
  La  La6  1  0.25000000  0.75000000  0.25000000  1.0
  La  La7  1  0.25000000  0.25000000  0.75000000  1.0
  Ti  Ti8  1  0.50000000  0.50000000  0.50000000  1.0
  Ti  Ti9  1  0.50000000  0.00000000  0.00000000  1.0
  Ti  Ti10  1  0.00000000  0.50000000  0.00000000  1.0
  Ti  Ti11  1  0.00000000  0.00000000  0.50000000  1.0
  Ti  Ti12  1  0.00000000  0.00000000  0.00000000  1.0
  Ti  Ti13  1  0.00000000  0.50000000  0.50000000  1.0
  Ti  Ti14  1  0.50000000  0.00000000  0.50000000  1.0
  Ti  Ti15  1  0.50000000  0.50000000  0.00000000  1.0
  O  O16  1  0.23900000  0.00000000  0.00000000  1.0
  O  O17  1  0.76100000  0.00000000  0.00000000  1.0
  O  O18  1  0.00000000  0.76100000  0.00000000  1.0
  O  O19  1  0.00000000  0.00000000  0.76100000  1.0
  O  O20  1  0.00000000  0.00000000  0.23900000  1.0
  O  O21  1  0.00000000  0.23900000  0.00000000  1.0
  O  O22  1  0.23900000  0.50000000  0.50000000  1.0
  O  O23  1  0.76100000  0.50000000  0.50000000  1.0
  O  O24  1  0.00000000  0.26100000  0.50000000  1.0
  O  O25  1  0.00000000  0.50000000  0.26100000  1.0
  O  O26  1  0.00000000  0.50000000  0.73900000  1.0
  O  O27  1  0.00000000  0.73900000  0.50000000  1.0
  O  O28  1  0.73900000  0.00000000  0.50000000  1.0
  O  O29  1  0.26100000  0.00000000  0.50000000  1.0
  O  O30  1  0.50000000  0.76100000  0.50000000  1.0
  O  O31  1  0.50000000  0.00000000  0.26100000  1.0
  O  O32  1  0.50000000  0.00000000  0.73900000  1.0
  O  O33  1  0.50000000  0.23900000  0.50000000  1.0
  O  O34  1  0.73900000  0.50000000  0.00000000  1.0
  O  O35  1  0.26100000  0.50000000  0.00000000  1.0
  O  O36  1  0.50000000  0.26100000  0.00000000  1.0
  O  O37  1  0.50000000  0.50000000  0.76100000  1.0
  O  O38  1  0.50000000  0.50000000  0.23900000  1.0
  O  O39  1  0.50000000  0.73900000  0.00000000  1.0
