# generated using pymatgen
data_LaCo
_symmetry_space_group_name_H-M   'P 1'
_cell_length_a   5.98100000
_cell_length_b   5.98100000
_cell_length_c   5.98100000
_cell_angle_alpha   90.00000000
_cell_angle_beta   90.00000000
_cell_angle_gamma   90.00000000
_symmetry_Int_Tables_number   1
_chemical_formula_structural   LaCo
_chemical_formula_sum   'La8 Co8'
_cell_volume   213.95449114
_cell_formula_units_Z   8
loop_
 _symmetry_equiv_pos_site_id
 _symmetry_equiv_pos_as_xyz
  1  'x, y, z'
loop_
 _atom_site_type_symbol
 _atom_site_label
 _atom_site_symmetry_multiplicity
 _atom_site_fract_x
 _atom_site_fract_y
 _atom_site_fract_z
 _atom_site_occupancy
  La  La0  1  0.03470000  0.03470000  0.03470000  1.0
  La  La1  1  0.46530000  0.03470000  0.96530000  1.0
  La  La2  1  0.96530000  0.46530000  0.03470000  1.0
  La  La3  1  0.03470000  0.96530000  0.46530000  1.0
  La  La4  1  0.53470000  0.53470000  0.53470000  1.0
  La  La5  1  0.96530000  0.53470000  0.46530000  1.0
  La  La6  1  0.46530000  0.96530000  0.53470000  1.0
  La  La7  1  0.53470000  0.46530000  0.96530000  1.0
  Co  Co8  1  0.29400000  0.29400000  0.29400000  1.0
  Co  Co9  1  0.20600000  0.29400000  0.70600000  1.0
  Co  Co10  1  0.70600000  0.20600000  0.29400000  1.0
  Co  Co11  1  0.29400000  0.70600000  0.20600000  1.0
  Co  Co12  1  0.79400000  0.79400000  0.79400000  1.0
  Co  Co13  1  0.70600000  0.79400000  0.20600000  1.0
  Co  Co14  1  0.20600000  0.70600000  0.79400000  1.0
  Co  Co15  1  0.79400000  0.20600000  0.70600000  1.0
