# generated using pymatgen
data_La2C3
_symmetry_space_group_name_H-M   'P 1'
_cell_length_a   8.81700000
_cell_length_b   8.81700000
_cell_length_c   8.81700000
_cell_angle_alpha   90.00000000
_cell_angle_beta   90.00000000
_cell_angle_gamma   90.00000000
_symmetry_Int_Tables_number   1
_chemical_formula_structural   La2C3
_chemical_formula_sum   'La16 C24'
_cell_volume   685.42907451
_cell_formula_units_Z   8
loop_
 _symmetry_equiv_pos_site_id
 _symmetry_equiv_pos_as_xyz
  1  'x, y, z'
loop_
 _atom_site_type_symbol
 _atom_site_label
 _atom_site_symmetry_multiplicity
 _atom_site_fract_x
 _atom_site_fract_y
 _atom_site_fract_z
 _atom_site_occupancy
  La  La0  1  0.05040000  0.05040000  0.05040000  1.0
  La  La1  1  0.44960000  0.05040000  0.94960000  1.0
  La  La2  1  0.19960000  0.30040000  0.69960000  1.0
  La  La3  1  0.94960000  0.44960000  0.05040000  1.0
  La  La4  1  0.69960000  0.19960000  0.30040000  1.0
  La  La5  1  0.30040000  0.69960000  0.19960000  1.0
  La  La6  1  0.30040000  0.30040000  0.30040000  1.0
  La  La7  1  0.05040000  0.94960000  0.44960000  1.0
  La  La8  1  0.55040000  0.55040000  0.55040000  1.0
  La  La9  1  0.94960000  0.55040000  0.44960000  1.0
  La  La10  1  0.69960000  0.80040000  0.19960000  1.0
  La  La11  1  0.44960000  0.94960000  0.55040000  1.0
  La  La12  1  0.19960000  0.69960000  0.80040000  1.0
  La  La13  1  0.80040000  0.19960000  0.69960000  1.0
  La  La14  1  0.80040000  0.80040000  0.80040000  1.0
  La  La15  1  0.55040000  0.44960000  0.94960000  1.0
  C  C16  1  0.30490000  0.00000000  0.25000000  1.0
  C  C17  1  0.19510000  0.00000000  0.75000000  1.0
  C  C18  1  0.94510000  0.50000000  0.75000000  1.0
  C  C19  1  0.69510000  0.50000000  0.25000000  1.0
  C  C20  1  0.44510000  0.00000000  0.25000000  1.0
  C  C21  1  0.50000000  0.25000000  0.69510000  1.0
  C  C22  1  0.25000000  0.55490000  0.50000000  1.0
  C  C23  1  0.00000000  0.25000000  0.30490000  1.0
  C  C24  1  0.75000000  0.94510000  0.50000000  1.0
  C  C25  1  0.25000000  0.30490000  0.00000000  1.0
  C  C26  1  0.00000000  0.25000000  0.44510000  1.0
  C  C27  1  0.75000000  0.19510000  0.00000000  1.0
  C  C28  1  0.50000000  0.25000000  0.55490000  1.0
  C  C29  1  0.55490000  0.50000000  0.25000000  1.0
  C  C30  1  0.25000000  0.44510000  0.00000000  1.0
  C  C31  1  0.00000000  0.75000000  0.19510000  1.0
  C  C32  1  0.50000000  0.75000000  0.94510000  1.0
  C  C33  1  0.25000000  0.69510000  0.50000000  1.0
  C  C34  1  0.80490000  0.50000000  0.75000000  1.0
  C  C35  1  0.75000000  0.05490000  0.00000000  1.0
  C  C36  1  0.50000000  0.75000000  0.80490000  1.0
  C  C37  1  0.75000000  0.80490000  0.50000000  1.0
  C  C38  1  0.00000000  0.75000000  0.05490000  1.0
  C  C39  1  0.05490000  0.00000000  0.75000000  1.0
