# generated using pymatgen
data_La3Se4
_symmetry_space_group_name_H-M   'P 1'
_cell_length_a   9.05500000
_cell_length_b   9.05500000
_cell_length_c   9.05500000
_cell_angle_alpha   90.00000000
_cell_angle_beta   90.00000000
_cell_angle_gamma   90.00000000
_symmetry_Int_Tables_number   1
_chemical_formula_structural   La3Se4
_chemical_formula_sum   'La12 Se16'
_cell_volume   742.44684137
_cell_formula_units_Z   4
loop_
 _symmetry_equiv_pos_site_id
 _symmetry_equiv_pos_as_xyz
  1  'x, y, z'
loop_
 _atom_site_type_symbol
 _atom_site_label
 _atom_site_symmetry_multiplicity
 _atom_site_fract_x
 _atom_site_fract_y
 _atom_site_fract_z
 _atom_site_occupancy
  La  La0  1  0.37500000  0.00000000  0.25000000  1.0
  La  La1  1  0.12500000  0.00000000  0.75000000  1.0
  La  La2  1  0.87500000  0.50000000  0.75000000  1.0
  La  La3  1  0.62500000  0.50000000  0.25000000  1.0
  La  La4  1  0.50000000  0.25000000  0.62500000  1.0
  La  La5  1  0.25000000  0.62500000  0.50000000  1.0
  La  La6  1  0.00000000  0.25000000  0.37500000  1.0
  La  La7  1  0.75000000  0.87500000  0.50000000  1.0
  La  La8  1  0.25000000  0.37500000  0.00000000  1.0
  La  La9  1  0.75000000  0.12500000  0.00000000  1.0
  La  La10  1  0.00000000  0.75000000  0.12500000  1.0
  La  La11  1  0.50000000  0.75000000  0.87500000  1.0
  Se  Se12  1  0.08333000  0.08333000  0.08333000  1.0
  Se  Se13  1  0.41667000  0.08333000  0.91667000  1.0
  Se  Se14  1  0.16667000  0.33333000  0.66667000  1.0
  Se  Se15  1  0.91667000  0.41667000  0.08333000  1.0
  Se  Se16  1  0.66667000  0.16667000  0.33333000  1.0
  Se  Se17  1  0.33333000  0.66667000  0.16667000  1.0
  Se  Se18  1  0.33333000  0.33333000  0.33333000  1.0
  Se  Se19  1  0.08333000  0.91667000  0.41667000  1.0
  Se  Se20  1  0.58333000  0.58333000  0.58333000  1.0
  Se  Se21  1  0.91667000  0.58333000  0.41667000  1.0
  Se  Se22  1  0.66667000  0.83333000  0.16667000  1.0
  Se  Se23  1  0.41667000  0.91667000  0.58333000  1.0
  Se  Se24  1  0.16667000  0.66667000  0.83333000  1.0
  Se  Se25  1  0.83333000  0.16667000  0.66667000  1.0
  Se  Se26  1  0.83333000  0.83333000  0.83333000  1.0
  Se  Se27  1  0.58333000  0.41667000  0.91667000  1.0
