# generated using pymatgen
data_CSe2
_symmetry_space_group_name_H-M   'P 1'
_cell_length_a   5.98956000
_cell_length_b   7.13953400
_cell_length_c   9.46265200
_cell_angle_alpha   90.00000000
_cell_angle_beta   90.00000000
_cell_angle_gamma   90.00000000
_symmetry_Int_Tables_number   1
_chemical_formula_structural   CSe2
_chemical_formula_sum   'C4 Se8'
_cell_volume   404.64823892
_cell_formula_units_Z   4
loop_
 _symmetry_equiv_pos_site_id
 _symmetry_equiv_pos_as_xyz
  1  'x, y, z'
loop_
 _atom_site_type_symbol
 _atom_site_label
 _atom_site_symmetry_multiplicity
 _atom_site_fract_x
 _atom_site_fract_y
 _atom_site_fract_z
 _atom_site_occupancy
  C  C0  1  0.50000000  0.00000000  0.50000000  1.0
  C  C1  1  0.00000000  0.00000000  0.00000000  1.0
  C  C2  1  0.00000000  0.50000000  0.50000000  1.0
  C  C3  1  0.50000000  0.50000000  0.00000000  1.0
  Se  Se4  1  0.28757800  0.00000000  0.62061500  1.0
  Se  Se5  1  0.71242200  0.00000000  0.37938500  1.0
  Se  Se6  1  0.21242200  0.00000000  0.12061500  1.0
  Se  Se7  1  0.78757800  0.00000000  0.87938500  1.0
  Se  Se8  1  0.78757800  0.50000000  0.62061500  1.0
  Se  Se9  1  0.21242200  0.50000000  0.37938500  1.0
  Se  Se10  1  0.71242200  0.50000000  0.12061500  1.0
  Se  Se11  1  0.28757800  0.50000000  0.87938500  1.0
